
*** ChampSim Multicore Out-of-Order Simulator ***

Warmup Instructions: 1000000
Simulation Instructions: 1000000
Number of CPUs: 1
LLC sets: 2048
LLC ways: 16
Off-chip DRAM Size: 4096 MB Channels: 1 Width: 64-bit Data Rate: 3200 MT/s

CPU 0 runs traces/605.mcf_s-782B.champsimtrace.xz
TRACE FILE NOT FOUND
bimodal-no-ipcp-1-ipcp-ipcp-lru-1core: src/main.cc:631: int main(int, char**): Assertion `0' failed.
