
*** ChampSim Multicore Out-of-Order Simulator ***

Warmup Instructions: 1000000
Simulation Instructions: 1000000
Number of CPUs: 1
LLC sets: 2048
LLC ways: 16
Off-chip DRAM Size: 4096 MB Channels: 1 Width: 64-bit Data Rate: 3200 MT/s

CPU 0 runs ../traces//605.mcf_s-994B.champsimtrace.xz
CPU 0 Bimodal branch predictor
702778644241
702778644350
702778644352
702778644353
702778644300
702778644450
702778644449
702778644487
702778644301
702778644302
LLC MISS: 702778644451
LLC MISS: 702778644488
702778644572
702778644584
702778644490
702778644616
702778644326
LLC MISS: 702778644573
LLC MISS: 702778644585
LLC MISS: 702778644491
LLC MISS: 702778644489
LLC MISS: 702778644617
702778644351
702778644686
702778644571
702778644785
LLC MISS: 702778644618
702778644687
4363500777704
702778644786
4363500777705
4363500777749
4363500777748
4363500777828
702778644583
4363500777829
4363500777891
4363500777935
4363500778015
4363500778057
4363500778119
4363500777892
4363500777936
4363500778201
4363500778016
4363500778058
4363500778120
4363500778202
4363500778245
4363500778310
4363500778378
4363500778246
4363500778311
4363500778379
4363500778488
4363500777739
4363500777740
702778644582
4363500778489
702778644462
702778644463
4363500778539
4363500778538
4363500778197
4363500778603
4363500778604
4363500778684
4363500778198
4363500778688
4363500778689
4363500778685
702778644574
4363500778806
4363500778861
4363500778393
4363500778930
4363500779002
702778644708
4363500778807
4363500778862
4363500778394
4363500778931
702778644709
4363500779003
4363500779039
4363500779128
4363500779127
4363500779040
4363500779194
4363500778691
4363500778690
4363500778019
4363500779195
702778644581
4363500779205
4363500778020
4363500779321
4363500779320
4363500779337
LLC MISS: 702778644580
4363500779412
LLC MISS: 702778644579
4363500779338
LLC MISS: 702778644578
4363500779413
4363500779508
4363500779507
4363500779217
4363500779540
4363500779218
4363500779588
4363500779541
4363500778748
4363500779709
4363500779589
4363500778749
4363500779710
4363500779752
4363500779751
4363500779774
4363500779822
4363500779881
4363500779775
4363500779823
4363500779882
4363500779919
LLC MISS: 702778644577
4363500779974
4363500779920
4363500780056
4363500779975
4363500780121
4363500779086
4363500779085
4363500780216
4363500780122
4363500780217
702778644575
4363500780270
4363500780335
4363500780334
4363500780352
4363500780353
4363500779786
4363500780271
4363500780429
4363500780494
4363500779787
4363500780430
4363500780495
LLC MISS: 702778644576
4363500780551
4363500780631
4363500780632
4363500780703
4363500780012
4363500780751
4363500780704
4363500780013
4363500780800
4363500780927
4363500780972
4363500780999
4363500780752
4363500780973
4363500781000
4363500780777
4363500780776
4363500781077
4363500781127
4363500781078
4363500781128
4363500778883
4363500781208
4363500781209
4363500778884
4363500781116
4363500780443
4363500780442
4363500781292
4363500781117
4363500781293
4363500781364
4363500781363
4363500778083
4363500778061
4363500778084
4363500781400
4363500778062
4363500780959
4363500781272
4363500781401
4363500780960
4363500781273
4363500781483
4363500777956
4363500781484
4363500781505
4363500777957
702778644369
702778644370
4363500781625
4363500781694
4363500781695
4363500781506
4363500781696
4363500781698
4363500781722
4363500780355
4363500780354
4363500781723
4363500781746
4363500781747
4363500781683
4363500781684
4363500781626
4363500781685
4363500781686
4363500781687
4363500781688
4363500778302
4363500778301
4363500781689
4363500778810
4363500781815
174026416086
174026416173
4363500781690
174026416202
4363500781691
4363500778811
174026416297
4363500781692
4363500781816
4363500778335
4363500781693
174026416087
4363500781756
4363500781757
174026416174
4363500781758
174026416203
174026416298
4363500781759
702778644288
4363500778336
702778644289
702778644290
4363500781249
4363500781250
LLC MISS: 702778644492
702778644291
702778644292
702778644293
702778644295
702778644299
702778644486
702778644481
702778644482
702778644480
702778644485
4363500780022
4363500780021
702778644484
702778644483
LLC MISS: 702778644555
174026416332
174026416333
174026416414
174026416413
174026416492
174026416493
174026416495
174026416496
LLC MISS: 702778644570
174026416575
174026416570
174026416571
174026416569
174026416574
174026416573
174026416572
LLC MISS: 174026416562
174026416568
174026416564
174026416567
174026416566
174026416565
174026416563
702778644371
702778644372
702778644373
702778644374
702778644375
702778644376
702778644398
174026416561
702778644399
702778644400
702778644401
LLC MISS: 174026416557
LLC MISS: 174026416550
LLC MISS: 174026416543
LLC MISS: 4363500778809
LLC MISS: 4363500778755
LLC MISS: 4363500778756
174026416594
4363500781748
4363500781749
702778644402
702778644403
702778644404
702778644405
702778644406
702778644407
702778644408
702778644409
702778644410
174026416591
174026416592
LLC MISS: 174026416555
LLC MISS: 174026416548
LLC MISS: 174026416556
LLC MISS: 4363500779446
LLC MISS: 4363500779426
LLC MISS: 4363500779447
LLC MISS: 4363500779427
LLC MISS: 4363500779393
LLC MISS: 4363500779440
LLC MISS: 4363500779392
LLC MISS: 4363500779439
LLC MISS: 702778644541
LLC MISS: 702778644540
LLC MISS: 702778644526
LLC MISS: 702778644527
LLC MISS: 174026416215
174026416554
174026416560
174026416559
174026416558
LLC MISS: 174026416549
LLC MISS: 174026416522
LLC MISS: 174026416518
LLC MISS: 174026416236
LLC MISS: 702778644496
LLC MISS: 702778644503
LLC MISS: 702778644494
LLC MISS: 702778644501
LLC MISS: 702778644495
LLC MISS: 702778644502
LLC MISS: 702778644493
LLC MISS: 702778644500
LLC MISS: 702778644507
LLC MISS: 702778644497
LLC MISS: 702778644504
LLC MISS: 702778644511
702778644586
174026416647
174026416729
174026416728
LLC MISS: 702778644598
174026416646
LLC MISS: 702778644545
174026416828
174026416710
174026416829
174026416852
174026416711
174026416853
174026416900
4363500779226
174026416901
174026416987
4363500779227
174026416988
174026416905
174026416906
174026417066
174026416963
174026417067
174026416964
174026417104
4363500781089
174026417105
4363500781090
174026416967
174026416968
LLC MISS: 4363500779301
LLC MISS: 4363500779072
LLC MISS: 4363500779111
LLC MISS: 4363500777972
LLC MISS: 4363500777952
LLC MISS: 702778644684
LLC MISS: 4363500779180
LLC MISS: 702778644600
LLC MISS: 702778644593
LLC MISS: 174026417063
LLC MISS: 174026416866
LLC MISS: 174026416873
LLC MISS: 174026416541
LLC MISS: 174026416512
LLC MISS: 174026416516
LLC MISS: 174026417015
LLC MISS: 174026417016
LLC MISS: 4363500779285
LLC MISS: 174026416995
LLC MISS: 174026417002
LLC MISS: 4363500779092
LLC MISS: 702778644566
LLC MISS: 4363500780896
LLC MISS: 4363500779767
LLC MISS: 4363500779760
LLC MISS: 4363500778482
LLC MISS: 4363500779135
LLC MISS: 4363500780123
LLC MISS: 702778644538
LLC MISS: 702778644562
LLC MISS: 4363500777964
LLC MISS: 702778644558
LLC MISS: 702778644725
LLC MISS: 702778644678
LLC MISS: 702778644700
LLC MISS: 702778644693
LLC MISS: 4363500779187
LLC MISS: 702778644590
LLC MISS: 702778644524
LLC MISS: 4363500781082
LLC MISS: 4363500777929
LLC MISS: 4363500777928
LLC MISS: 174026416980
LLC MISS: 174026416973
LLC MISS: 174026416966
LLC MISS: 174026416979
LLC MISS: 174026416972
LLC MISS: 174026416965
LLC MISS: 702778644587
LLC MISS: 702778644588
LLC MISS: 4363500780792
LLC MISS: 4363500780785
LLC MISS: 702778644592
LLC MISS: 702778644535
LLC MISS: 702778644591
LLC MISS: 4363500777741
LLC MISS: 4363500780436
LLC MISS: 174026416645
LLC MISS: 174026416677
LLC MISS: 174026416678
LLC MISS: 702778644589
LLC MISS: 4363500778071
LLC MISS: 4363500778064
LLC MISS: 4363500777786
LLC MISS: 4363500780936
LLC MISS: 4363500780935
LLC MISS: 174026416713
LLC MISS: 174026416706
LLC MISS: 174026416714
LLC MISS: 174026416707
LLC MISS: 702778644508
LLC MISS: 702778644515
702778644498
LLC MISS: 702778644505
LLC MISS: 702778644512
LLC MISS: 702778644519
LLC MISS: 702778644514
174026417156
LLC MISS: 702778644597
LLC MISS: 702778644596
LLC MISS: 702778644603
174026417220
174026417219
174026417292
174026417346
174026417271
174026417270
174026417460
174026417157
174026417291
174026417461
174026417345
174026417175
174026417174
174026417493
174026417492
174026417247
174026417246
LLC MISS: 174026417226
LLC MISS: 174026417233
LLC MISS: 174026417240
174026417225
174026417552
174026417553
LLC MISS: 174026417234
174026417609
174026417608
174026417705
174026417221
174026417738
174026417844
LLC MISS: 174026417731
LLC MISS: 174026417745
174026417706
LLC MISS: 174026417850
LLC MISS: 174026417851
174026417222
174026417739
174026417845
174026417515
174026417857
174026417858
174026417286
174026417287
174026417178
174026417516
174026417983
174026417982
174026417179
174026417176
174026417187
174026417177
174026417201
174026417214
174026417188
174026417993
174026417202
174026417215
LLC MISS: 174026417160
174026417994
174026417293
174026417294
174026417302
174026417969
LLC MISS: 174026417977
LLC MISS: 174026417970
174026417303
174026418075
174026418074
174026417831
174026417311
174026417832
174026417312
174026418151
LLC MISS: 174026418145
174026417261
174026418152
174026417275
174026417276
174026418224
174026417262
174026418225
174026418241
174026418240
174026417535
174026417826
174026417811
174026418304
174026417827
174026417384
LLC MISS: 174026417391
LLC MISS: 174026417399
174026417812
174026417385
174026417170
174026417169
174026418055
174026418054
174026418390
174026418391
174026418457
174026417971
174026418458
174026417972
174026417820
174026417268
174026417269
174026417243
174026417821
174026417824
174026417244
174026417985
174026417984
LLC MISS: 174026417838
LLC MISS: 174026417846
174026417825
LLC MISS: 174026417251
LLC MISS: 174026417615
LLC MISS: 174026417600
LLC MISS: 174026417278
LLC MISS: 174026417921
LLC MISS: 174026417961
LLC MISS: 174026417880
LLC MISS: 174026417887
LLC MISS: 702778644509
LLC MISS: 174026417392
LLC MISS: 174026417378
LLC MISS: 174026418083
LLC MISS: 174026418248
LLC MISS: 174026417698
LLC MISS: 174026418437
LLC MISS: 702778644554
LLC MISS: 174026417602
LLC MISS: 174026417486
LLC MISS: 174026417865
LLC MISS: 174026417616
LLC MISS: 174026418159
LLC MISS: 174026418137
LLC MISS: 174026418144
LLC MISS: 174026418272
LLC MISS: 174026417509
LLC MISS: 174026417230
LLC MISS: 702778644510
LLC MISS: 174026417964
LLC MISS: 174026417979
LLC MISS: 702778644594
LLC MISS: 702778644595
LLC MISS: 174026417289
LLC MISS: 174026417288
LLC MISS: 174026417295
LLC MISS: 174026417310
LLC MISS: 174026417195
LLC MISS: 174026417163
LLC MISS: 174026417164
LLC MISS: 174026417194
LLC MISS: 174026417172
LLC MISS: 174026417186
LLC MISS: 174026417193
LLC MISS: 174026417171
LLC MISS: 174026417817
LLC MISS: 174026417835
LLC MISS: 174026417834
LLC MISS: 174026417818
LLC MISS: 702778644499
LLC MISS: 702778644518
702778644605
174026418513
174026418574
174026418573
174026418514
174026418634
174026418659
174026418672
174026418646
174026418697
174026418756
174026418755
174026418836
174026418835
174026418939
174026418970
LLC MISS: 174026418709
174026419015
174026418971
174026418938
174026418710
LLC MISS: 174026418753
174026419014
174026419082
174026419081
LLC MISS: 702778644506
174026418684
174026419193
174026419192
LLC MISS: 174026418702
LLC MISS: 174026418717
174026419206
174026419207
LLC MISS: 702778644567
174026419316
174026419317
LLC MISS: 174026419318
174026419339
174026419340
LLC MISS: 174026418708
LLC MISS: 174026418707
LLC MISS: 174026418706
174026419445
174026418519
174026418520
174026419514
174026419578
174026419515
174026419579
174026419643
174026419446
174026419646
174026419680
174026419746
174026419814
174026419644
174026419647
174026419846
174026419681
LLC MISS: 174026419696
174026419747
174026419815
174026419847
174026418511
174026418510
174026419215
174026419216
174026419938
174026420005
174026419633
174026419939
174026420090
LLC MISS: 174026418705
174026420130
LLC MISS: 174026420158
174026420006
LLC MISS: 174026420150
174026419634
174026420091
174026420223
174026420222
174026420226
174026420227
174026420336
174026420402
174026420401
174026420337
174026420466
174026419574
174026419573
174026420467
174026420493
LLC MISS: 174026420514
174026420492
174026420437
174026420117
LLC MISS: 174026418704
174026420428
174026420438
LLC MISS: 174026420441
174026420118
174026420576
174026420575
174026419621
174026420429
LLC MISS: 174026420436
174026420620
LLC MISS: 174026420621
174026419622
174026420207
174026420206
174026420325
LLC MISS: 174026420291
LLC MISS: 174026420307
LLC MISS: 174026420293
174026420326
174026420059
174026420705
174026420704
174026420265
174026420060
174026420266
LLC MISS: 174026418703
174026420738
174026420852
174026420854
174026420918
174026420959
174026420853
174026420855
174026420919
174026420960
174026419884
174026420739
174026420019
LLC MISS: 174026419993
174026419885
174026421020
174026421019
174026419079
174026420020
174026420115
174026419080
174026420116
LLC MISS: 174026420125
LLC MISS: 174026420109
174026420857
174026420856
174026421089
174026421090
174026421169
174026420113
174026421170
174026421230
174026421229
174026420114
174026421290
174026421359
174026421360
174026421404
174026421291
174026421460
174026421444
LLC MISS: 174026421498
174026421514
LLC MISS: 174026421463
174026421605
LLC MISS: 174026421590
174026421405
174026419896
174026421461
LLC MISS: 174026419895
174026421515
174026421445
174026421606
174026419897
174026421643
174026421642
174026419902
174026421696
174026419903
LLC MISS: 174026418701
174026418534
174026418533
174026420906
174026421792
174026420907
174026421793
LLC MISS: 174026421799
LLC MISS: 174026421797
174026421858
174026421697
174026421948
174026421947
174026422006
174026422007
LLC MISS: 702778644599
174026420041
174026422066
174026421859
174026421700
174026420042
LLC MISS: 174026420035
LLC MISS: 174026420049
174026422067
174026421701
174026422116
174026422115
174026421852
174026420608
174026421853
174026421530
174026420609
174026422145
174026422144
174026420278
174026421531
LLC MISS: 174026418700
174026419667
LLC MISS: 174026419674
LLC MISS: 174026419678
174026420279
174026422261
174026422260
174026422314
174026419668
174026422343
174026422315
174026422408
174026422407
174026422344
174026420813
174026422476
174026422536
174026422622
LLC MISS: 174026422503
174026420814
LLC MISS: 174026422499
LLC MISS: 174026422544
174026422477
174026422537
174026422668
174026422623
174026420743
174026419960
174026422774
174026422826
174026422669
LLC MISS: 174026422836
174026420744
174026422817
174026422305
174026419961
LLC MISS: 174026418699
174026422775
174026422827
174026422818
174026422306
174026422875
174026422876
174026422962
LLC MISS: 174026422882
LLC MISS: 174026422883
174026422963
174026422983
174026422982
174026422061
174026423047
LLC MISS: 174026423054
174026419705
174026422062
174026421310
174026422280
LLC MISS: 174026418698
174026423048
174026419706
174026421311
174026422281
174026423115
174026423114
174026423228
174026423222
174026423229
174026423244
174026423243
174026423223
174026421941
174026421940
174026421084
LLC MISS: 174026421919
LLC MISS: 174026421926
174026421085
174026423329
174026422278
174026419379
174026423330
174026422279
174026423367
174026423366
174026422058
174026419380
174026419480
174026419479
174026419551
LLC MISS: 702778644601
LLC MISS: 174026419566
LLC MISS: 174026419559
174026419552
174026423471
174026422059
LLC MISS: 174026422052
174026423543
174026423472
174026422954
174026422953
174026423005
174026423544
174026423469
174026423006
174026423470
174026423598
174026423645
174026423646
174026423743
174026423788
174026423599
174026420752
174026423856
174026423895
174026423936
174026423789
174026424023
174026421705
174026420753
LLC MISS: 174026418696
174026423857
174026423896
174026424024
174026421706
174026424107
174026424106
174026424190
174026424191
174026424219
174026424220
174026423783
174026421707
174026423784
174026424306
174026421708
174026424367
174026424366
174026424407
174026424408
174026424485
174026424307
174026424531
174026424636
174026423781
174026424693
174026424486
174026424716
174026424532
LLC MISS: 174026418695
174026424637
174026423782
174026424694
174026424717
174026418543
174026418542
174026424785
174026424786
LLC MISS: 702778644602
174026424886
174026421287
174026424887
174026424959
174026421288
174026424976
174026422393
LLC MISS: 174026418694
174026421568
174026424977
174026422394
174026424092
174026424093
174026421163
174026422042
174026421164
174026422945
174026422944
174026424490
174026425047
174026424491
174026425048
174026425150
174026425151
174026425152
LLC MISS: 174026425156
174026425268
174026425340
174026423754
174026423424
174026425153
LLC MISS: 174026418693
174026425269
174026425341
174026423755
174026423425
174026420810
174026420809
174026425388
174026424971
174026425389
174026423744
174026424972
LLC MISS: 174026424979
LLC MISS: 174026424986
174026425435
174026425528
174026425523
174026423745
LLC MISS: 174026425530
174026425436
174026425529
LLC MISS: 174026425531
LLC MISS: 174026425524
174026425564
174026425563
174026425656
LLC MISS: 174026418692
174026425721
174026425657
174026425781
174026425780
LLC MISS: 174026425776
174026425722
174026425809
174026425894
174026425893
174026425810
174026422491
174026422490
174026419468
174026420733
174026425941
174026419469
174026420734
174026424945
LLC MISS: 174026424921
174026425942
174026421723
LLC MISS: 174026424951
174026424946
174026421724
174026426039
174026426048
174026426049
174026421734
174026426040
LLC MISS: 174026418691
174026425501
174026421735
174026425772
174026425771
LLC MISS: 174026425786
174026422036
174026425502
174026423320
174026426158
174026422037
174026423321
174026426159
174026423113
174026423112
174026425426
174026425712
174026425427
LLC MISS: 174026418690
174026425713
174026423647
174026425085
LLC MISS: 174026425037
174026422500
LLC MISS: 174026425046
174026423648
174026426232
174026426291
174026425086
174026421151
174026426233
174026426292
LLC MISS: 174026426248
174026421152
LLC MISS: 702778644604
174026426313
174026426312
174026423831
174026425703
174026423832
174026426405
174026425704
174026426483
174026426482
174026425963
174026426406
174026425964
174026422028
174026422027
174026425483
174026425478
174026425484
174026426194
174026422016
174026420104
LLC MISS: 174026418689
LLC MISS: 174026420105
LLC MISS: 174026420098
174026425479
174026426195
174026422017
174026426496
174026426497
174026422196
174026426576
174026422197
174026420758
174026424650
174026426577
174026426648
174026425674
LLC MISS: 174026418688
174026420759
174026424651
174026426649
174026425675
174026423266
174026426734
174026423267
174026426758
174026426735
174026425590
174026425667
174026426759
174026425591
174026425668
174026422559
174026425665
LLC MISS: 174026422558
LLC MISS: 174026422557
174026425175
174026425666
174026422568
174026422567
174026426167
174026425176
174026426168
174026426824
174026426823
174026426915
174026426916
174026426965
174026427033
174026427113
174026426966
174026427034
174026427114
174026427189
174026427188
174026427235
174026427312
174026424591
LLC MISS: 174026427242
174026427236
174026427313
174026423172
174026424592
174026427382
LLC MISS: 174026423173
174026427407
174026427406
174026426174
174026427383
174026426175
174026427463
174026427462
174026423306
174026427533
174026423307
174026427627
174026427694
174026427715
174026427534
174026427628
174026427695
174026427716
174026422504
174026427836
174026427883
174026427837
174026427954
174026426380
174026427884
174026428010
174026428036
174026427955
174026426381
174026428011
174026428037
LLC MISS: 702778644606
174026428100
174026428215
174026428101
174026424578
174026428216
174026418687
174026427722
174026428281
LLC MISS: 174026428285
LLC MISS: 174026428244
174026424579
174026427723
LLC MISS: 174026418686
LLC MISS: 174026418685
174026427466
174026427465
174026428282
174026426709
174026428302
174026428301
174026425854
174026426710
174026427863
174026425855
174026427819
174026427818
174026427864
174026428397
174026428396
174026426698
174026427102
174026426699
174026428456
174026427103
174026428485
174026428484
174026428603
174026428457
174026427684
174026428616
174026427965
174026427859
174026428604
174026427685
174026428729
LLC MISS: 174026418683
174026427966
174026427860
174026428730
174026422577
174026422576
174026428775
174026428776
174026428824
174026428916
174026428825
174026428940
174026427080
LLC MISS: 174026418682
174026428917
174026428941
174026425869
174026425868
174026427081
174026429002
174026422923
174026422922
174026427073
174026429003
174026427074
174026429083
174026429082
174026429142
174026429235
174026429143
174026429236
174026427552
174026427551
LLC MISS: 702778644607
174026428720
LLC MISS: 174026418681
174026428721
174026429265
174026429264
174026423529
174026422508
174026422507
174026429339
174026429340
174026429419
174026423530
174026429443
174026428844
174026429514
174026417336
174026429420
LLC MISS: 174026417343
174026429444
174026428845
174026429515
174026417337
174026429612
174026429660
174026429613
174026429745
174026428465
174026429661
174026428944
LLC MISS: 174026418680
174026429746
174026428466
174026428945
174026426061
174026426060
174026419183
LLC MISS: 174026419175
LLC MISS: 174026419190
174026419184
174026429219
174026429802
174026429801
174026428700
174026429220
174026428701
174026427260
174026427259
174026429362
LLC MISS: 174026427257
174026429363
174026429876
174026429911
174026429998
174026429877
174026429525
174026429863
174026429912
174026429215
174026430024
174026429999
LLC MISS: 174026430000
174026419178
174026429526
LLC MISS: 174026418679
174026429864
174026429216
174026430025
174026419179
174026427158
174026427157
174026429197
174026430085
174026430206
174026429198
174026430086
174026430207
174026429548
LLC MISS: 174026418678
174026430248
174026429549
174026428682
174026430249
174026430328
174026430327
174026428683
174026430359
174026430424
174026430423
174026430360
174026427740
174026430484
174026430483
174026427741
174026430552
LLC MISS: 174026430537
174026430646
174026430645
174026430266
174026430553
174026430267
LLC MISS: 174026418677
174026430666
174026430722
174026430723
174026419176
174026430667
174026430474
174026430473
174026419177
174026430840
174026430839
174026427155
174026430854
174026430941
LLC MISS: 174026430855
174026427156
174026431035
174026430942
174026430686
174026431036
174026430687
174026430833
174026430832
174026418593
174026427749
LLC MISS: 174026418586
174026418594
174026431041
174026427750
174026431134
174026431133
174026431181
174026431182
174026431033
174026431290
174026431042
174026431283
LLC MISS: 174026418676
174026431034
174026431291
LLC MISS: 174026431294
174026431318
174026431317
174026431284
174026430831
174026430830
174026431367
174026431368
174026420795
174026420794
174026430044
174026431483
174026431270
174026430045
174026431484
174026431271
174026430732
174026430731
174026427584
LLC MISS: 174026430724
LLC MISS: 174026430738
174026431530
174026427585
174026431580
174026431265
174026431639
LLC MISS: 174026418675
174026431531
174026431581
LLC MISS: 174026431566
LLC MISS: 174026431573
174026431640
174026431266
174026419534
LLC MISS: 174026419581
174026419533
174026431703
174026431775
174026431704
174026431776
174026431825
174026431826
174026431933
174026431985
174026431619
174026431247
LLC MISS: 174026418674
174026431934
174026431986
174026431620
LLC MISS: 174026431631
174026431248
174026418624
174026431135
LLC MISS: 174026418625
174026431136
LLC MISS: 174026418626
174026422517
174026431241
LLC MISS: 174026418627
174026432042
174026422518
LLC MISS: 174026422519
174026432043
174026431462
174026431242
174026427149
174026427148
174026430294
174026430295
174026431463
174026432115
174026432114
174026431238
174026420797
174026431239
LLC MISS: 174026431263
LLC MISS: 174026431260
174026427144
174026427143
174026430737
LLC MISS: 174026427164
174026430997
LLC MISS: 174026431004
LLC MISS: 174026431012
LLC MISS: 174026418673
174026431981
174026420798
174026431979
174026431970
174026430998
174026430990
174026432147
174026431982
174026417327
174026431980
174026431971
174026430991
174026432148
174026417328
174026432197
174026432198
174026431521
174026430981
174026432317
174026431522
174026432324
174026430982
174026432318
174026432431
174026432430
174026432481
174026432325
174026432482
2627809316609
2627809316608
174026431160
174026419529
2627809316692
2627809316788
LLC MISS: 2627809316693
174026431161
174026419530
174026430976
LLC MISS: 174026430977
2627809316789
2627809316831
2627809316830
LLC MISS: 174026418628
2627809316885
174026427760
LLC MISS: 174026427761
2627809316886
2627809316988
2627809317027
2627809317026
LLC MISS: 2627809317030
2627809316986
2627809316989
2627809317096
2627809317145
LLC MISS: 174026418671
2627809316987
2627809317097
2627809317146
LLC MISS: 2627809317153
2627809317189
2627809317188
2627809317268
2627809317269
2627809317323
LLC MISS: 2627809317330
2627809317006
2627809317007
2627809317324
LLC MISS: 174026418638
2627809317427
2627809317479
174026431508
2627809317428
2627809317273
LLC MISS: 174026418670
2627809317480
174026431509
2627809317274
174026432311
2627809317548
2627809317547
174026432312
2627809317619
174026430752
174026430751
LLC MISS: 174026430767
LLC MISS: 174026430753
LLC MISS: 174026430780
2627809317646
2627809317620
2627809317647
2627809316618
2627809316617
2384994520309
2627809316974
LLC MISS: 2627809316626
2384994520310
2627809316975
2384994520368
2384994520388
2384994520369
2627809316963
174026431838
2384994520505
2384994520568
2384994520389
2627809317130
2627809316964
LLC MISS: 174026418629
LLC MISS: 174026418669
174026431839
2384994520506
2384994520569
2627809317131
2627809317002
LLC MISS: 2627809317000
LLC MISS: 2627809317001
2627809317430
LLC MISS: 2627809316999
2627809317431
251391421380
251391421379
251391421486
251391421487
251391421560
251391421561
2384994520487
174026427768
LLC MISS: 174026418668
2384994520488
174026427769
2627809316625
2627809316624
251391421581
251391421657
251391421747
LLC MISS: 2627809316651
LLC MISS: 2627809316638
LLC MISS: 2627809316649
LLC MISS: 2627809316650
251391421582
LLC MISS: 2627809316637
LLC MISS: 2627809316648
251391421658
174026431496
251391421748
174026431492
2627809317076
251391421822
251391421845
174026431497
174026431493
251391421935
251391421988
2627809317077
251391421823
251391421846
251391421936
251391421989
251391422050
251391421813
251391422051
2627809317072
251391422117
251391421810
2627809317300
251391421814
LLC MISS: 174026418667
2627809317073
251391422118
251391421811
2627809317301
LLC MISS: 174026418630
251391422163
251391422162
251391422269
LLC MISS: 251391422262
251391422333
2627809317302
LLC MISS: 174026418666
251391422334
2627809317303
251391422395
251391422394
251391422456
251391422457
251391422479
LLC MISS: 251391422511
251391422480
251391422528
251391422614
251391421931
251391421930
251391422529
174026429902
LLC MISS: 174026429947
251391422708
251391422615
251391421552
251391421932
174026418911
LLC MISS: 174026418665
174026429903
251391422709
251391421553
174026418912
2627809316699
2627809316700
174026432199
251391422745
LLC MISS: 251391422744
174026432200
251391421775
LLC MISS: 251391421761
LLC MISS: 251391421797
251391422746
251391421776
LLC MISS: 251391421762
LLC MISS: 251391421798
251391422818
251391422817
251391421766
LLC MISS: 251391422826
LLC MISS: 251391422825
251391422910
251391421911
251391421767
251391422957
251391421907
174026418905
251391422911
LLC MISS: 174026418664
251391421912
251391422958
251391421908
174026418906
174026430759
174026430758
251391421897
251391423038
251391421898
251391423090
251391423020
251391423167
LLC MISS: 251391423163
LLC MISS: 251391423115
174026423489
251391423039
251391423091
251391423168
251391423021
174026423490
251391423248
251391422995
174026418882
251391423249
LLC MISS: 174026418663
LLC MISS: 251391423240
251391423308
LLC MISS: 251391423233
251391422996
LLC MISS: 251391423258
174026418883
LLC MISS: 174026418908
251391423372
251391423371
LLC MISS: 251391423390
LLC MISS: 251391423401
251391423433
251391423309
LLC MISS: 174026418662
251391423535
251391423434
251391423536
174026430761
174026430760
251391422639
251391423556
251391422640
LLC MISS: 251391422635
251391422641
251391423650
251391423557
251391422642
251391423651
251391423737
251391423769
251391423738
LLC MISS: 174026418631
251391423854
251391423853
251391423935
174026430592
251391423770
LLC MISS: 251391423766
2627809316703
2627809316704
174026430821
251391423998
2627809316631
251391422151
251391424063
174026430822
251391423999
2627809316632
251391422152
251391422701
251391424064
251391422559
251391424190
LLC MISS: 251391424071
LLC MISS: 251391424078
251391422702
251391422560
251391424191
251391424200
LLC MISS: 174026418661
174026429889
251391424201
174026432002
174026432001
251391423719
174026429890
LLC MISS: 251391423695
LLC MISS: 251391423702
174026426626
251391423720
LLC MISS: 251391423727
174026430770
174026430769
LLC MISS: 174026418649
LLC MISS: 174026418657
251391424268
174026426627
251391424327
251391422564
251391423710
LLC MISS: 174026418660
251391424269
251391424328
251391422565
251391423711
251391424437
251391424436
LLC MISS: 251391424421
251391422985
251391422984
LLC MISS: 174026418632
251391424485
251391423776
LLC MISS: 251391423798
LLC MISS: 251391423790
251391424486
LLC MISS: 251391423783
251391424565
251391423777
LLC MISS: 251391423763
251391424577
251391424576
251391424680
251391424566
LLC MISS: 251391424568
LLC MISS: 251391424569
251391424763
251391424671
251391424658
174026432165
251391424681
251391424223
251391424764
251391424672
251391424659
174026432166
251391424224
251391421389
251391421388
2384994520291
2384994520292
251391423778
251391424225
251391423779
174026430797
174026430796
251391423920
LLC MISS: 174026430786
251391423921
251391424647
251391424226
251391422144
251391422145
251391423707
251391424648
251391423782
LLC MISS: 174026418658
251391423708
251391424774
251391424773
251391423705
251391424895
251391424894
LLC MISS: 251391424858
LLC MISS: 251391424866
251391423706
LLC MISS: 174026418633
251391423785
251391424958
251391424959
251391423786
251391422290
LLC MISS: 251391423797
251391423847
251391423846
251391424973
251391424974
LLC MISS: 251391424985
LLC MISS: 251391424976
251391424642
251391422686
251391422291
251391425040
251391424643
251391422687
251391425041
174026430795
174026430794
251391425150
251391425175
251391425176
251391422805
251391422804
251391424112
251391422497
251391424113
251391422498
251391423799
251391421398
251391421397
174026426087
251391425248
174026426088
251391424132
251391425249
2384994520428
251391425280
251391425394
251391424133
251391425282
2384994520429
251391425281
251391425446
251391425395
251391425283
251391425447
251391425290
251391425390
251391425291
251391423703
251391425372
LLC MISS: 174026418656
251391425391
251391423704
251391425490
251391425491
251391425300
251391425373
2777491164222
251391422679
251391425058
LLC MISS: 174026418655
LLC MISS: 251391425064
251391425301
2777491164223
251391422680
251391425059
LLC MISS: 251391425050
LLC MISS: 251391425045
LLC MISS: 251391425043
2777491164280
2777491164279
251391422501
LLC MISS: 2777491164274
LLC MISS: 2777491164281
2777491164350
LLC MISS: 2777491164301
251391422502
LLC MISS: 2777491164349
2777491164351
251391425365
2777491164385
LLC MISS: 174026418654
174026432261
251391425366
2777491164477
2777491164386
174026432262
2777491164536
2777491164537
2777491164548
2777491164478
2777491164662
2777491164734
2777491164750
2777491164856
2777491164549
2777491164663
2777491164735
2777491164751
2777491164857
LLC MISS: 174026418653
251391423385
251391423384
174026419004
174026419005
2777491164916
251391422584
2777491164917
2777491164956
251391422585
2777491164998
2777491165077
2777491165142
174026418849
2777491164957
2777491164999
2777491165009
LLC MISS: 174026418652
2777491165140
2777491165078
2777491165133
2777491165143
174026418850
2777491165032
2777491165184
2777491165010
2777491165126
2777491165141
2777491165134
2777491164882
2777491165033
2777491165185
2777491165127
2777491164883
2777491165255
2777491165256
2777491164307
LLC MISS: 174026418651
2777491165189
2777491165330
2777491165437
2777491164753
2777491164308
2777491165501
2777491165190
2777491165331
2777491165544
2777491165438
2777491165570
2777491165542
2777491164754
LLC MISS: 174026418650
2777491165646
2777491165502
2777491165545
2777491165571
2777491165543
2777491165647
2777491165707
2777491165706
2777491165800
2777491165801
2777491165490
2777491165884
2777491165491
2777491165889
2777491165483
2777491165574
2777491165885
2777491164806
2777491165890
2777491165484
2777491165575
2777491164807
174026426090
174026426089
2777491166015
2777491166016
2777491166080
2627809316654
2627809316653
LLC MISS: 174026418635
2777491166176
2777491166177
2777491166081
2777491166250
2777491166251
LLC MISS: 2777491166259
LLC MISS: 2777491166266
2777491164390
LLC MISS: 2777491164397
2777491165481
LLC MISS: 2777491164404
LLC MISS: 2777491165488
2777491166294
2777491164391
LLC MISS: 2777491166301
2777491166018
2777491165482
2777491166295
2777491166019
251391423977
251391423976
2777491166379
2777491166424
2777491166380
2777491166084
2777491166425
2777491165517
2777491166085
174026432393
174026432392
2777491166020
2777491165518
LLC MISS: 174026418648
2777491166021
2777491166481
2777491166480
2777491165439
2777491166556
2777491166592
2777491166037
2777491166557
2777491166038
LLC MISS: 2777491166023
LLC MISS: 2777491166031
LLC MISS: 174026418636
174026418752
2627809316735
251391424902
2777491166701
251391424903
2777491166764
2777491166702
251391422517
2777491166765
2627809316656
2627809316655
174026426093
174026426094
2777491166422
251391422518
251391425080
2777491166423
251391425081
LLC MISS: 174026418647
2777491166042
2777491166800
2777491166801
LLC MISS: 2777491166785
LLC MISS: 2777491166798
2777491166906
2777491166043
2777491166934
2777491166933
LLC MISS: 2777491166940
2777491167011
2777491166107
2777491166907
2777491167012
2777491166108
2777491167073
2777491167072
2777491164520
2777491166051
2777491164521
2777491165352
2777491166052
2777491167132
2777491167133
2777491165353
2777491165209
2777491167221
2777491165210
2777491167258
2777491167222
2777491167259
251391421411
LLC MISS: 251391421381
174026418766
2777491167327
LLC MISS: 251391421424
251391421412
2777491166415
2777491167328
2777491167403
2777491167467
2777491167536
2777491166416
2777491167568
LLC MISS: 174026418637
LLC MISS: 174026418645
2777491167404
2777491167468
2777491167537
2777491167569
251391425129
251391425128
2777491167624
2777491166190
2777491167721
2777491167625
2777491166191
2777491167772
2777491167722
2777491167856
2777491167901
2777491167849
174026418979
2777491167773
2777491167857
2777491167902
2777491167850
174026418980
2777491167639
2777491167638
2777491164506
2777491167263
LLC MISS: 2777491167264
2777491164507
LLC MISS: 2777491167265
2627809317206
2627809317207
2777491166120
LLC MISS: 174026418644
LLC MISS: 2777491166121
2777491167783
2777491167969
2777491167968
2777491168059
2777491167784
2777491168056
LLC MISS: 2777491167777
LLC MISS: 2777491167770
LLC MISS: 2777491167792
2777491168120
2777491166408
2777491167844
2777491168060
2777491168057
2777491167838
2777491168121
LLC MISS: 174026418643
2777491166409
2777491167845
2777491167839
2777491167564
2777491168189
2777491168188
2777491167565
2777491167276
2777491168208
2777491168209
2777491167277
2777491168303
2777491168302
2777491167642
2777491168341
2777491168445
2777491167643
2777491168342
2777491168460
2777491168446
2777491168542
2777491168579
2777491168657
2777491168461
2777491165373
2777491168543
2777491168481
2777491167822
2777491168580
2777491168658
2777491165374
2777491168482
2777491167823
2777491166520
2777491168707
2777491166521
2777491168799
2777491168837
2777491168708
LLC MISS: 174026418642
2777491168800
2777491168838
2777491168919
2777491168918
2777491165311
2777491169001
2777491167817
2777491164480
2777491166650
LLC MISS: 2777491166643
2777491169068
2777491167290
2777491169002
LLC MISS: 174026418641
2777491167818
2777491166651
2777491169069
2777491167291
251391425098
251391425097
2777491169102
LLC MISS: 2777491169110
2777491169101
LLC MISS: 2777491169109
LLC MISS: 174026418639
2777491168796
2777491168436
2777491168797
2777491168855
LLC MISS: 2777491168863
2777491168437
2777491168856
LLC MISS: 2777491168864
2777491168430
2777491169159
2777491169158
2777491169253
2777491168431
LLC MISS: 174026418640
2777491169254
251391425095
251391425094
251391421418
2777491167141
2777491168427
251391421419
2777491167142
2777491169310
2777491168428
2777491167676
2777491169311
2777491167677
2777491169383
2777491169430
2777491169431
LLC MISS: 2777491169437
LLC MISS: 2777491169444
2777491165853
2777491169086
2777491169384
2777491169474
2777491168273
2777491165854
2777491169087
2777491169475
2777491168274
LLC MISS: 2777491168275
2777491167948
2777491167947
2777491167808
2777491169542
2777491167809
2777491169628
LLC MISS: 2777491169636
LLC MISS: 2777491169643
2777491169669
2777491169543
2777491169629
2777491169670
2777491166200
2777491166199
2777491168869
2777491168870
2777491169729
LLC MISS: 2777491169780
251391421421
251391421420
2777491167942
LLC MISS: 251391421428
2777491167943
2777491169807
2777491168871
2777491169730
2777491169884
2777491169808
2777491168872
2777491169956
2777491169955
2777491169885
2777491169706
2777491169705
2777491169902
2777491169703
LLC MISS: 2777491169702
2777491169903
2777491169704
2777491170002
2777491170001
2777491168938
2777491169230
2777491168939
2777491169227
2777491169231
2777491170094
2777491170093
2777491169228
2777491166356
2777491169901
2777491169900
LLC MISS: 2777491169862
2777491170116
LLC MISS: 2777491169883
2777491170117
2777491169676
2777491166357
2777491170221
LLC MISS: 2777491170222
LLC MISS: 2777491170223
2777491169677
LLC MISS: 2777491170224
2777491168894
2777491168893
2777491170248
2777491170249
2777491169679
2777491165835
2777491169680
2777491168888
2777491168887
2777491170341
2777491170342
2777491168288
2777491165836
2777491166361
2777491168289
2777491170373
2777491170372
2777491170488
2777491166362
2777491170541
2777491168004
2777491170230
174026418814
2777491170489
LLC MISS: 2777491170491
2777491170542
2777491170231
174026418815
2777491169695
2777491169694
2777491170592
2777491170684
2777491170685
174026418812
2777491170593
2777491169567
2777491169698
174026418813
2777491169568
2777491169699
LLC MISS: 174026422307
LLC MISS: 174026422322
LLC MISS: 174026422495
LLC MISS: 174026422502
LLC MISS: 174026419359
LLC MISS: 174026419334
LLC MISS: 702778644560
LLC MISS: 174026419853
LLC MISS: 2777491169875
LLC MISS: 2777491169890
LLC MISS: 174026420653
LLC MISS: 174026420318
LLC MISS: 174026420332
LLC MISS: 2777491169896
LLC MISS: 2777491169865
LLC MISS: 251391421414
LLC MISS: 2777491168865
LLC MISS: 2777491168260
LLC MISS: 2777491168267
LLC MISS: 2777491168295
LLC MISS: 2777491168310
LLC MISS: 2777491167268
LLC MISS: 2777491167283
LLC MISS: 2777491169720
LLC MISS: 2777491166143
LLC MISS: 174026418500
LLC MISS: 2777491167651
LLC MISS: 2777491167658
LLC MISS: 174026421937
LLC MISS: 2777491167572
LLC MISS: 2777491167606
LLC MISS: 2627809316697
LLC MISS: 2777491166050
LLC MISS: 2777491166058
LLC MISS: 174026418759
LLC MISS: 251391423985
LLC MISS: 174026432269
LLC MISS: 702778644561
LLC MISS: 251391425055
LLC MISS: 251391425048
LLC MISS: 251391425062
LLC MISS: 251391421401
LLC MISS: 251391424216
LLC MISS: 174026423220
LLC MISS: 174026430828
LLC MISS: 2627809317280
LLC MISS: 2627809317307
LLC MISS: 2627809317278
LLC MISS: 2627809317292
LLC MISS: 174026419474
LLC MISS: 174026419472
LLC MISS: 174026419503
LLC MISS: 174026431154
LLC MISS: 174026431147
LLC MISS: 174026431139
LLC MISS: 174026432489
LLC MISS: 174026432496
LLC MISS: 174026427151
LLC MISS: 174026418549
LLC MISS: 174026421171
LLC MISS: 174026430818
LLC MISS: 174026430790
LLC MISS: 174026427748
LLC MISS: 174026427755
LLC MISS: 174026428958
LLC MISS: 174026428951
LLC MISS: 174026428936
LLC MISS: 174026427225
LLC MISS: 174026427233
LLC MISS: 174026420146
LLC MISS: 174026420153
LLC MISS: 251391421417
LLC MISS: 251391421416
LLC MISS: 174026427742
LLC MISS: 174026427743
LLC MISS: 174026427744
LLC MISS: 251391423991
LLC MISS: 2777491169687
LLC MISS: 2777491169684
LLC MISS: 174026418507
LLC MISS: 2777491169244
LLC MISS: 251391421432
LLC MISS: 174026420864
LLC MISS: 251391421425
LLC MISS: 251391421426
LLC MISS: 251391421433
LLC MISS: 174026427181
LLC MISS: 251391423803
LLC MISS: 174026431167
LLC MISS: 174026421731
LLC MISS: 174026427775
LLC MISS: 702778644520
LLC MISS: 702778644517
LLC MISS: 251391423788
LLC MISS: 174026420126
LLC MISS: 702778644513
LLC MISS: 174026421754
LLC MISS: 702778644547
LLC MISS: 174026427757
LLC MISS: 174026420129
LLC MISS: 174026420128
LLC MISS: 174026420127
LLC MISS: 702778644569
LLC MISS: 174026420144
LLC MISS: 174026420111
LLC MISS: 174026420122
LLC MISS: 174026417338
LLC MISS: 174026421741
LLC MISS: 174026421732
LLC MISS: 174026416542
LLC MISS: 174026421727
LLC MISS: 174026416514
LLC MISS: 174026427765
LLC MISS: 174026427720
LLC MISS: 2777491169691
LLC MISS: 174026427180
LLC MISS: 2777491169701
LLC MISS: 251391423758
LLC MISS: 251391423787
LLC MISS: 251391423775
LLC MISS: 251391423768
LLC MISS: 251391423784
LLC MISS: 2777491167271
LLC MISS: 174026416552
LLC MISS: 174026427756
LLC MISS: 251391423795
LLC MISS: 251391423771
LLC MISS: 251391423796
LLC MISS: 2777491169682
LLC MISS: 2777491169693
LLC MISS: 2777491169681
LLC MISS: 2777491169692
LLC MISS: 251391421427
LLC MISS: 2777491169256
LLC MISS: 2777491169263
LLC MISS: 702778644546
LLC MISS: 174026418509
LLC MISS: 702778644536
LLC MISS: 174026418512
LLC MISS: 251391421422
LLC MISS: 174026431115
LLC MISS: 251391421400
LLC MISS: 251391421387
LLC MISS: 251391421437
LLC MISS: 251391421391
LLC MISS: 251391421405
LLC MISS: 251391421390
LLC MISS: 251391421404
LLC MISS: 702778644542
LLC MISS: 251391423723
LLC MISS: 174026423463
LLC MISS: 174026423478
LLC MISS: 2777491168842
LLC MISS: 2777491168833
LLC MISS: 702778644553
LLC MISS: 174026419187
LLC MISS: 174026419894
LLC MISS: 174026425702
LLC MISS: 174026420862
LLC MISS: 174026420845
LLC MISS: 174026420838
LLC MISS: 174026420860
LLC MISS: 174026420863
LLC MISS: 174026419875
LLC MISS: 174026419851
LLC MISS: 174026419882
LLC MISS: 174026421124
LLC MISS: 251391425133
LLC MISS: 251391425113
LLC MISS: 174026420610
LLC MISS: 174026420232
LLC MISS: 174026420269
LLC MISS: 2777491166059
LLC MISS: 2777491166066
LLC MISS: 174026422473
LLC MISS: 174026422285
LLC MISS: 174026428273
LLC MISS: 174026428266
LLC MISS: 174026425847
LLC MISS: 2627809316660
LLC MISS: 2777491164801
LLC MISS: 251391425067
LLC MISS: 251391425074
LLC MISS: 251391425052
LLC MISS: 251391425109
LLC MISS: 174026422332
LLC MISS: 174026422289
LLC MISS: 251391423682
LLC MISS: 702778644557
LLC MISS: 251391424206
LLC MISS: 2627809316622
LLC MISS: 174026430785
LLC MISS: 2627809316696
LLC MISS: 2627809316707
LLC MISS: 174026430680
LLC MISS: 174026430672
LLC MISS: 2627809317306
LLC MISS: 174026424363
LLC MISS: 174026424356
LLC MISS: 2627809317271
LLC MISS: 174026423466
LLC MISS: 174026423430
LLC MISS: 174026425725
LLC MISS: 174026422288
LLC MISS: 174026422295
LLC MISS: 251391423697
LLC MISS: 174026422272
LLC MISS: 174026422286
LLC MISS: 702778644549
LLC MISS: 2627809317137
LLC MISS: 174026425706
LLC MISS: 174026425699
LLC MISS: 174026425718
LLC MISS: 174026419901
LLC MISS: 174026420669
LLC MISS: 2777491166049
LLC MISS: 2777491166057
LLC MISS: 174026431269
LLC MISS: 2777491166028
LLC MISS: 174026418898
LLC MISS: 174026418890
LLC MISS: 174026428722
LLC MISS: 174026418889
LLC MISS: 251391423696
LLC MISS: 251391423712
LLC MISS: 174026422304
LLC MISS: 174026422303
LLC MISS: 174026425714
LLC MISS: 251391424210
LLC MISS: 251391423740
LLC MISS: 702778644564
LLC MISS: 174026428693
LLC MISS: 174026428686
LLC MISS: 174026425711
LLC MISS: 702778644548
LLC MISS: 174026431240
LLC MISS: 174026418919
LLC MISS: 174026418920
LLC MISS: 174026418910
LLC MISS: 174026418900
LLC MISS: 251391423721
LLC MISS: 174026431252
LLC MISS: 174026431245
LLC MISS: 174026418961
LLC MISS: 174026418954
LLC MISS: 174026431249
LLC MISS: 174026431256
LLC MISS: 251391423709
LLC MISS: 251391423699
LLC MISS: 174026416547
LLC MISS: 174026416540
LLC MISS: 174026416533
LLC MISS: 174026418932
LLC MISS: 174026418943
LLC MISS: 174026431234
LLC MISS: 174026431236
LLC MISS: 174026431268
LLC MISS: 174026431235
LLC MISS: 174026431267
LLC MISS: 174026431272
LLC MISS: 702778644525
LLC MISS: 174026423457
LLC MISS: 174026423464
LLC MISS: 174026425723
LLC MISS: 174026425669
LLC MISS: 174026431250
LLC MISS: 174026425719
LLC MISS: 174026425683
LLC MISS: 174026425690
LLC MISS: 174026425720
LLC MISS: 174026425684
LLC MISS: 174026425691
LLC MISS: 174026423479
LLC MISS: 174026425715
LLC MISS: 174026425708
LLC MISS: 174026423432
LLC MISS: 174026423431
LLC MISS: 174026423440
LLC MISS: 174026423427
LLC MISS: 174026423439
LLC MISS: 174026423426
LLC MISS: 174026419845
LLC MISS: 174026419844
LLC MISS: 174026420627
LLC MISS: 174026420628
LLC MISS: 702778644568
LLC MISS: 251391424232
LLC MISS: 251391424240
LLC MISS: 251391424247
LLC MISS: 2777491166041
LLC MISS: 702778644543
LLC MISS: 174026430240
LLC MISS: 174026430256
LLC MISS: 2627809317259
LLC MISS: 174026425663
LLC MISS: 174026419891
LLC MISS: 174026419899
LLC MISS: 174026419886
LLC MISS: 174026419887
LLC MISS: 174026419893
LLC MISS: 174026419889
LLC MISS: 174026425648
LLC MISS: 174026430695
LLC MISS: 174026430681
LLC MISS: 2627809317311
LLC MISS: 2627809317290
LLC MISS: 174026430689
LLC MISS: 174026430707
LLC MISS: 174026430704
LLC MISS: 174026430688
LLC MISS: 2627809317276
LLC MISS: 2627809317265
LLC MISS: 2777491166013
LLC MISS: 2777491166067
LLC MISS: 2777491166046
LLC MISS: 2777491166053
LLC MISS: 2777491166062
LLC MISS: 251391425066
LLC MISS: 251391421608
LLC MISS: 251391421615
LLC MISS: 2777491167629
LLC MISS: 2777491167649
LLC MISS: 702778644516
LLC MISS: 174026419471
LLC MISS: 174026419466
LLC MISS: 2777491168281
LLC MISS: 174026432302
LLC MISS: 174026432309
LLC MISS: 174026432483
LLC MISS: 251391421589
LLC MISS: 251391421597
LLC MISS: 251391421604
LLC MISS: 174026420341
LLC MISS: 174026430838
LLC MISS: 174026430837
LLC MISS: 174026430836
LLC MISS: 174026430841
LLC MISS: 174026421939
LLC MISS: 174026421932
LLC MISS: 174026421943
LLC MISS: 2777491169893
LLC MISS: 174026423224
LLC MISS: 174026423225
LLC MISS: 2627809316633
LLC MISS: 174026427262
LLC MISS: 2777491168877
LLC MISS: 174026430803
LLC MISS: 174026428975
LLC MISS: 174026428952
LLC MISS: 174026429119
LLC MISS: 174026427082
LLC MISS: 174026427089
LLC MISS: 174026425836
LLC MISS: 174026422486
LLC MISS: 174026426524
LLC MISS: 174026426546
LLC MISS: 174026426126
LLC MISS: 2627809316714
LLC MISS: 2777491166140
LLC MISS: 174026420231
LLC MISS: 174026427234
LLC MISS: 2777491168271
LLC MISS: 2777491168278
LLC MISS: 174026422488
LLC MISS: 2627809316629
LLC MISS: 2777491168878
LLC MISS: 2777491168885
LLC MISS: 174026423230
LLC MISS: 2627809316639
LLC MISS: 174026419164
LLC MISS: 174026419171
LLC MISS: 2627809316646
LLC MISS: 2777491166731
LLC MISS: 2777491167610
LLC MISS: 174026426165
LLC MISS: 251391425107
LLC MISS: 2777491166111
LLC MISS: 2777491164800
LLC MISS: 174026421138
LLC MISS: 174026430807
LLC MISS: 174026421165
LLC MISS: 174026426161
LLC MISS: 174026422516
LLC MISS: 2627809316659
LLC MISS: 174026426160
LLC MISS: 174026430846
LLC MISS: 174026427116
LLC MISS: 174026427135
LLC MISS: 174026427083
LLC MISS: 2777491168297
LLC MISS: 174026420830
LLC MISS: 174026422515
LLC MISS: 174026430817
LLC MISS: 174026430824
LLC MISS: 174026416524
LLC MISS: 174026416526
LLC MISS: 251391425135
LLC MISS: 174026430814
LLC MISS: 174026430808
LLC MISS: 174026430847
LLC MISS: 174026420837
LLC MISS: 174026430800
LLC MISS: 251391425115
LLC MISS: 174026420816
LLC MISS: 2777491168873
LLC MISS: 2777491168866
LLC MISS: 174026416536
LLC MISS: 251391425147
LLC MISS: 174026416535
LLC MISS: 174026416551
LLC MISS: 174026416544
LLC MISS: 174026416537
174026416553
LLC MISS: 174026416520
LLC MISS: 2777491168841
LLC MISS: 2777491168891
LLC MISS: 2777491168895
LLC MISS: 2777491168892
LLC MISS: 174026430812
LLC MISS: 174026430801
LLC MISS: 174026430792
LLC MISS: 174026420823
LLC MISS: 174026420802
LLC MISS: 174026430789
LLC MISS: 174026416534
LLC MISS: 174026422506
LLC MISS: 174026420806
LLC MISS: 174026420817
LLC MISS: 174026420803
LLC MISS: 174026422475
LLC MISS: 174026420859
LLC MISS: 174026430793
LLC MISS: 2777491167663
LLC MISS: 2777491167662
LLC MISS: 2627809316667
LLC MISS: 174026422513
LLC MISS: 2627809316668
LLC MISS: 2627809316661
LLC MISS: 2777491167570
LLC MISS: 2777491167571
LLC MISS: 174026422523
LLC MISS: 2627809316671
LLC MISS: 2777491167636
LLC MISS: 2627809316615
LLC MISS: 2627809316652
LLC MISS: 2777491167632
LLC MISS: 2777491167623
LLC MISS: 2777491166101
LLC MISS: 2777491166093
LLC MISS: 174026426164
LLC MISS: 174026426157
LLC MISS: 2777491166092
LLC MISS: 2777491166100
LLC MISS: 174026420264
LLC MISS: 174026420267
LLC MISS: 2777491164858
LLC MISS: 174026427110
LLC MISS: 174026419186
LLC MISS: 174026432319
LLC MISS: 174026419199
LLC MISS: 2777491164842
LLC MISS: 2777491164849
LLC MISS: 2777491164863
LLC MISS: 174026432275
LLC MISS: 2777491166117
LLC MISS: 2777491166113
LLC MISS: 2777491166118
LLC MISS: 2777491166114
LLC MISS: 174026428933
LLC MISS: 174026420277
LLC MISS: 174026420276
LLC MISS: 174026420275
LLC MISS: 2777491166127
LLC MISS: 2777491168308
LLC MISS: 174026428947
LLC MISS: 174026428946
LLC MISS: 174026428939
LLC MISS: 174026416528
LLC MISS: 174026416527
LLC MISS: 174026428932
LLC MISS: 174026428931
LLC MISS: 174026416523
LLC MISS: 174026420333
LLC MISS: 174026420330
LLC MISS: 174026420253
LLC MISS: 174026420238
LLC MISS: 174026427109
LLC MISS: 174026421146
LLC MISS: 174026421147
LLC MISS: 174026420324
LLC MISS: 174026426166
LLC MISS: 174026426173
LLC MISS: 174026420271
LLC MISS: 174026420257
LLC MISS: 174026420261
LLC MISS: 174026420268
LLC MISS: 2777491166136
LLC MISS: 2777491166135
LLC MISS: 2777491166142
LLC MISS: 2777491166105
LLC MISS: 2777491168314
LLC MISS: 2777491168313
LLC MISS: 174026423207
LLC MISS: 174026423214
LLC MISS: 174026423208
LLC MISS: 174026423215
LLC MISS: 174026421889
LLC MISS: 174026421890
LLC MISS: 174026429094
LLC MISS: 174026424371
LLC MISS: 174026424372
LLC MISS: 702778644521
LLC MISS: 2777491166780
LLC MISS: 702778644534
LLC MISS: 174026426536
LLC MISS: 174026426531
LLC MISS: 174026421906
LLC MISS: 174026421898
LLC MISS: 174026421905
LLC MISS: 174026421897
LLC MISS: 174026421911
LLC MISS: 174026421918
LLC MISS: 174026421912
LLC MISS: 174026432497
LLC MISS: 174026432488
LLC MISS: 2627809316710
LLC MISS: 2627809316718
LLC MISS: 2627809316711
LLC MISS: 2627809316719
LLC MISS: 174026419493
LLC MISS: 174026419492
LLC MISS: 174026419341
LLC MISS: 2627809317654
LLC MISS: 2627809317661
LLC MISS: 174026422868
LLC MISS: 174026422890
LLC MISS: 174026422897
LLC MISS: 2777491169916
LLC MISS: 2777491169911
LLC MISS: 174026419387
LLC MISS: 174026430368
LLC MISS: 2777491169891
LLC MISS: 2777491169898
LLC MISS: 251391423506
LLC MISS: 251391423499
LLC MISS: 2627809317653
LLC MISS: 174026424726
LLC MISS: 174026424733
LLC MISS: 174026424723
LLC MISS: 174026424724
LLC MISS: 2627809317692
LLC MISS: 2627809317632
LLC MISS: 2627809317693
LLC MISS: 2627809317633
LLC MISS: 251391425063
LLC MISS: 251391425047
LLC MISS: 251391425054
LLC MISS: 2777491169917
LLC MISS: 2777491169919
LLC MISS: 2627809316698
LLC MISS: 2627809316728
LLC MISS: 174026427228
LLC MISS: 174026424792
LLC MISS: 174026424793
LLC MISS: 2627809316702
LLC MISS: 702778644523
LLC MISS: 702778644528
LLC MISS: 2777491164535
LLC MISS: 251391423375
LLC MISS: 174026426054
LLC MISS: 174026426069
LLC MISS: 174026421060
LLC MISS: 174026421114
LLC MISS: 174026419129
LLC MISS: 174026421080
LLC MISS: 174026421088
LLC MISS: 2777491170647
LLC MISS: 2777491170632
LLC MISS: 2627809317071
LLC MISS: 2627809317106
LLC MISS: 174026419074
LLC MISS: 702778644539
LLC MISS: 2777491170677
LLC MISS: 2777491170670
LLC MISS: 2777491169560
LLC MISS: 2777491169552
LLC MISS: 174026418711
LLC MISS: 174026418712
LLC MISS: 174026418713
LLC MISS: 2777491170416
LLC MISS: 174026419213
LLC MISS: 174026419220
LLC MISS: 174026419439
LLC MISS: 2777491170549
LLC MISS: 2777491170556
LLC MISS: 2777491170438
LLC MISS: 2777491170445
LLC MISS: 174026419640
LLC MISS: 174026419604
LLC MISS: 2777491166354
LLC MISS: 2777491166347
LLC MISS: 2777491166369
LLC MISS: 2777491165842
LLC MISS: 2777491170242
LLC MISS: 174026419741
LLC MISS: 2777491170003
LLC MISS: 2777491170004
LLC MISS: 2777491168930
LLC MISS: 2777491168923
LLC MISS: 2777491168945
LLC MISS: 174026419541
LLC MISS: 2777491169792
LLC MISS: 174026420003
LLC MISS: 174026419635
LLC MISS: 2777491167949
LLC MISS: 2777491167951
LLC MISS: 2777491167992
LLC MISS: 2777491169630
LLC MISS: 174026420073
LLC MISS: 174026420499
LLC MISS: 174026419217
LLC MISS: 174026420403
LLC MISS: 174026420468
LLC MISS: 174026420494
LLC MISS: 2777491169544
LLC MISS: 2777491169549
LLC MISS: 2777491169556
LLC MISS: 2777491167810
LLC MISS: 174026420439
LLC MISS: 174026419575
LLC MISS: 2777491169432
LLC MISS: 2777491169519
LLC MISS: 2777491169476
LLC MISS: 174026419628
LLC MISS: 174026420430
LLC MISS: 174026419623
LLC MISS: 2777491165824
LLC MISS: 2777491165855
LLC MISS: 2777491169385
LLC MISS: 174026420607
LLC MISS: 174026420598
LLC MISS: 174026420044
LLC MISS: 174026420037
LLC MISS: 174026420208
LLC MISS: 174026420061
LLC MISS: 174026420706
LLC MISS: 174026420713
LLC MISS: 2777491167159
LLC MISS: 2777491167139
LLC MISS: 2777491167143
LLC MISS: 174026418714
LLC MISS: 174026418721
LLC MISS: 174026420741
LLC MISS: 174026420742
LLC MISS: 2777491169312
LLC MISS: 2777491169324
LLC MISS: 2777491169332
LLC MISS: 2777491169317
LLC MISS: 174026420961
LLC MISS: 174026420021
LLC MISS: 2777491168429
LLC MISS: 2777491169160
LLC MISS: 174026421021
LLC MISS: 2777491168432
LLC MISS: 2777491169103
LLC MISS: 174026421091
LLC MISS: 2777491168423
LLC MISS: 2777491168798
LLC MISS: 174026421231
LLC MISS: 2777491168920
LLC MISS: 174026421254
LLC MISS: 174026421262
LLC MISS: 174026421453
LLC MISS: 174026421446
LLC MISS: 174026421468
LLC MISS: 174026421406
LLC MISS: 174026421462
LLC MISS: 174026421516
LLC MISS: 2777491169070
LLC MISS: 2777491166642
LLC MISS: 2777491166635
LLC MISS: 2777491167819
LLC MISS: 174026421502
LLC MISS: 174026421607
LLC MISS: 174026418715
LLC MISS: 2777491169003
LLC MISS: 2777491164481
LLC MISS: 2777491168343
LLC MISS: 174026418719
LLC MISS: 174026418726
LLC MISS: 174026421324
LLC MISS: 174026421349
LLC MISS: 174026421644
LLC MISS: 2777491168801
LLC MISS: 174026418748
LLC MISS: 174026418750
LLC MISS: 174026421851
LLC MISS: 174026421794
LLC MISS: 174026420048
LLC MISS: 174026420055
LLC MISS: 174026421860
LLC MISS: 174026422074
LLC MISS: 2777491168709
LLC MISS: 174026422014
LLC MISS: 174026421854
LLC MISS: 174026422117
LLC MISS: 174026421532
LLC MISS: 2777491166522
LLC MISS: 2777491167824
LLC MISS: 174026422146
LLC MISS: 174026419669
LLC MISS: 2777491168483
LLC MISS: 174026422262
LLC MISS: 174026422409
LLC MISS: 174026422651
LLC MISS: 174026422624
LLC MISS: 174026420750
LLC MISS: 174026420757
LLC MISS: 174026422670
LLC MISS: 2777491165375
LLC MISS: 2777491165365
LLC MISS: 2777491168659
LLC MISS: 174026419942
LLC MISS: 174026419949
LLC MISS: 174026420745
LLC MISS: 2777491168581
LLC MISS: 2777491168544
LLC MISS: 174026419962
LLC MISS: 174026422543
LLC MISS: 174026422776
LLC MISS: 174026422828
LLC MISS: 174026422819
LLC MISS: 174026422538
LLC MISS: 174026422984
LLC MISS: 2777491168462
LLC MISS: 174026422063
LLC MISS: 2777491168447
LLC MISS: 2777491168216
LLC MISS: 2777491168190
LLC MISS: 174026418731
LLC MISS: 174026423049
LLC MISS: 2777491167967
LLC MISS: 2777491167970
LLC MISS: 2777491167840
LLC MISS: 174026418716
LLC MISS: 174026419707
LLC MISS: 2777491167846
LLC MISS: 174026422964
LLC MISS: 2777491166410
LLC MISS: 2777491168122
LLC MISS: 2777491168061
LLC MISS: 2777491167785
LLC MISS: 174026423245
LLC MISS: 2627809317208
LLC MISS: 2627809317198
LLC MISS: 2777491164499
LLC MISS: 2777491164492
LLC MISS: 2777491164508
LLC MISS: 2777491166184
LLC MISS: 174026423331
LLC MISS: 174026421078
LLC MISS: 174026421071
LLC MISS: 174026421064
LLC MISS: 174026421077
LLC MISS: 174026421070
LLC MISS: 174026421063
LLC MISS: 174026423391
LLC MISS: 2777491167851
LLC MISS: 174026423368
LLC MISS: 174026419544
LLC MISS: 174026422060
LLC MISS: 2777491167903
LLC MISS: 2777491167864
LLC MISS: 174026423545
LLC MISS: 174026422991
LLC MISS: 174026422998
LLC MISS: 2777491167774
LLC MISS: 174026422955
LLC MISS: 174026423591
LLC MISS: 174026423584
LLC MISS: 174026423576
LLC MISS: 174026423606
LLC MISS: 174026423613
LLC MISS: 174026418767
LLC MISS: 2777491167538
LLC MISS: 174026423795
LLC MISS: 174026423937
LLC MISS: 174026423790
LLC MISS: 174026420754
LLC MISS: 2777491167469
LLC MISS: 2777491167474
LLC MISS: 2777491167460
LLC MISS: 174026423858
LLC MISS: 2777491166417
LLC MISS: 2777491167350
LLC MISS: 2777491167357
LLC MISS: 174026423897
LLC MISS: 2777491167134
LLC MISS: 174026424025
LLC MISS: 174026424182
LLC MISS: 174026424160
LLC MISS: 174026424221
LLC MISS: 174026423785
LLC MISS: 174026424108
LLC MISS: 174026418749
LLC MISS: 2777491167207
LLC MISS: 174026424275
LLC MISS: 174026424308
LLC MISS: 174026424487
LLC MISS: 174026424533
LLC MISS: 174026424612
LLC MISS: 174026424576
LLC MISS: 2777491165211
LLC MISS: 2777491165345
LLC MISS: 174026423750
LLC MISS: 2777491165354
LLC MISS: 2777491166935
LLC MISS: 2777491167013
LLC MISS: 174026424695
LLC MISS: 2777491166908
LLC MISS: 2777491166894
LLC MISS: 174026424409
LLC MISS: 174026421289
LLC MISS: 174026421569
LLC MISS: 174026424988
LLC MISS: 2777491166816
LLC MISS: 174026426095
LLC MISS: 2777491166428
LLC MISS: 251391422519
LLC MISS: 251391424904
LLC MISS: 174026424888
LLC MISS: 174026422032
LLC MISS: 174026422033
LLC MISS: 174026419016
LLC MISS: 174026424094
LLC MISS: 2777491166703
LLC MISS: 2777491166716
LLC MISS: 174026422043
LLC MISS: 2777491166488
LLC MISS: 2777491166495
LLC MISS: 2777491166482
LLC MISS: 2777491166558
LLC MISS: 174026425074
LLC MISS: 174026425054
LLC MISS: 174026424492
LLC MISS: 174026425041
LLC MISS: 2777491166593
LLC MISS: 174026432400
LLC MISS: 174026432394
LLC MISS: 2777491165519
LLC MISS: 2777491166342
LLC MISS: 2777491166426
LLC MISS: 2777491166252
LLC MISS: 174026425154
LLC MISS: 174026425270
LLC MISS: 174026425301
LLC MISS: 174026425342
LLC MISS: 174026423756
LLC MISS: 174026422946
LLC MISS: 174026425017
LLC MISS: 2777491164355
LLC MISS: 2777491166185
LLC MISS: 2777491165568
LLC MISS: 2777491165498
LLC MISS: 174026426038
LLC MISS: 174026426050
LLC MISS: 174026426051
LLC MISS: 174026418744
LLC MISS: 174026423313
LLC MISS: 174026423847
LLC MISS: 174026426397
LLC MISS: 174026426412
LLC MISS: 174026425930
LLC MISS: 174026422069
LLC MISS: 174026422068
LLC MISS: 174026422078
LLC MISS: 174026418745
LLC MISS: 174026418741
LLC MISS: 2777491165027
LLC MISS: 174026426681
LLC MISS: 174026426668
LLC MISS: 2777491165180
LLC MISS: 174026422554
LLC MISS: 174026427003
LLC MISS: 174026426992
LLC MISS: 174026426930
LLC MISS: 2777491165068
LLC MISS: 174026424585
LLC MISS: 2777491164979
LLC MISS: 174026427537
LLC MISS: 174026427617
LLC MISS: 174026427660
LLC MISS: 174026427673
LLC MISS: 174026427672
LLC MISS: 174026427891
LLC MISS: 174026427898
LLC MISS: 174026428017
LLC MISS: 174026428002
LLC MISS: 2777491164773
LLC MISS: 2777491164766
LLC MISS: 2777491164780
LLC MISS: 174026424633
LLC MISS: 174026424634
LLC MISS: 2777491164673
LLC MISS: 2777491164374
LLC MISS: 2777491164393
LLC MISS: 2777491164400
LLC MISS: 174026428382
LLC MISS: 174026428389
LLC MISS: 174026428398
LLC MISS: 174026428400
LLC MISS: 174026427794
LLC MISS: 251391425381
LLC MISS: 2777491164318
LLC MISS: 2777491164333
LLC MISS: 2777491164326
LLC MISS: 174026427933
LLC MISS: 251391422673
LLC MISS: 2777491164166
LLC MISS: 174026428886
LLC MISS: 174026425862
LLC MISS: 174026426067
LLC MISS: 174026426086
LLC MISS: 174026429228
LLC MISS: 174026427530
LLC MISS: 174026429605
LLC MISS: 251391425378
LLC MISS: 174026429206
LLC MISS: 174026429207
LLC MISS: 174026429208
LLC MISS: 174026429870
LLC MISS: 174026429244
LLC MISS: 174026429232
LLC MISS: 174026430110
LLC MISS: 174026430103
LLC MISS: 251391424664
LLC MISS: 251391424678
LLC MISS: 174026430193
LLC MISS: 251391422159
LLC MISS: 174026430556
LLC MISS: 174026430469
LLC MISS: 174026432159
LLC MISS: 174026432152
LLC MISS: 174026430481
LLC MISS: 174026430488
LLC MISS: 251391424649
LLC MISS: 251391424679
LLC MISS: 174026418578
LLC MISS: 174026431477
LLC MISS: 174026431587
LLC MISS: 174026431675
LLC MISS: 251391424314
LLC MISS: 251391424258
LLC MISS: 174026431924
LLC MISS: 174026431917
LLC MISS: 174026431766
LLC MISS: 174026431767
LLC MISS: 174026429939
LLC MISS: 174026429925
LLC MISS: 251391422153
LLC MISS: 174026432116
LLC MISS: 174026430763
LLC MISS: 174026430764
LLC MISS: 174026431977
LLC MISS: 251391423563
LLC MISS: 251391422598
LLC MISS: 251391422606
LLC MISS: 174026431529
LLC MISS: 174026431515
LLC MISS: 174026432424
LLC MISS: 174026432416
LLC MISS: 2627809316847
LLC MISS: 2627809316862
LLC MISS: 2627809316932
LLC MISS: 174026431520
LLC MISS: 2627809317029
LLC MISS: 2384994520422
LLC MISS: 2384994520391
LLC MISS: 2627809316995
LLC MISS: 2627809317010
LLC MISS: 174026431489
LLC MISS: 174026431503
LLC MISS: 174026431494
LLC MISS: 2627809317104
LLC MISS: 2627809317084
LLC MISS: 251391421853
LLC MISS: 251391421861
LLC MISS: 251391421868
LLC MISS: 251391421990
LLC MISS: 251391422743
LLC MISS: 174026425078
LLC MISS: 251391422389
LLC MISS: 2777491169575
LLC MISS: 251391422486
LLC MISS: 251391422504
LLC MISS: 174026431488
LLC MISS: 174026419438
LLC MISS: 174026419430
LLC MISS: 174026419423
LLC MISS: 2384994520416
LLC MISS: 174026432345
LLC MISS: 174026432338
LLC MISS: 174026431534
LLC MISS: 174026431533
LLC MISS: 174026431532
LLC MISS: 174026430739
LLC MISS: 174026419527
LLC MISS: 174026419520
LLC MISS: 174026431634
LLC MISS: 174026418620
LLC MISS: 2777491168011
LLC MISS: 2777491168019
LLC MISS: 2777491168026
LLC MISS: 174026419591
LLC MISS: 174026419598
LLC MISS: 251391424612
LLC MISS: 174026432150
LLC MISS: 251391424610
LLC MISS: 174026430648
LLC MISS: 174026429541
LLC MISS: 174026429533
LLC MISS: 174026429527
LLC MISS: 174026429534
LLC MISS: 251391422693
LLC MISS: 2777491170320
LLC MISS: 174026429905
LLC MISS: 2777491170236
LLC MISS: 251391425285
LLC MISS: 174026429127
LLC MISS: 2777491164276
LLC MISS: 174026426727
LLC MISS: 174026423273
LLC MISS: 174026426729
LLC MISS: 174026424642
LLC MISS: 174026420486
LLC MISS: 174026420538
LLC MISS: 174026420540
LLC MISS: 2777491165262
LLC MISS: 174026419567
LLC MISS: 174026423838
LLC MISS: 174026423839
LLC MISS: 174026423840
LLC MISS: 174026426056
LLC MISS: 2777491165582
LLC MISS: 2777491165589
LLC MISS: 2777491165583
LLC MISS: 2777491165590
LLC MISS: 2777491166456
LLC MISS: 174026420698
LLC MISS: 2777491165413
LLC MISS: 174026424970
LLC MISS: 2777491164543
LLC MISS: 2777491168422
LLC MISS: 174026418768
LLC MISS: 174026418769
LLC MISS: 2777491168426
LLC MISS: 174026419572
LLC MISS: 2627809317197
LLC MISS: 2777491168052
LLC MISS: 2777491168034
LLC MISS: 2777491168047
LLC MISS: 2777491168025
LLC MISS: 2777491167975
LLC MISS: 2777491167961
LLC MISS: 174026422034
LLC MISS: 174026422990
LLC MISS: 174026419699
LLC MISS: 2777491166465
LLC MISS: 2777491164503
LLC MISS: 2777491165264
LLC MISS: 2777491165279
LLC MISS: 2777491165272
LLC MISS: 2777491164542
LLC MISS: 251391421530
LLC MISS: 2777491166523
LLC MISS: 174026432158
LLC MISS: 174026423039
LLC MISS: 2777491168063
LLC MISS: 174026422999
LLC MISS: 174026423013
LLC MISS: 174026429970
LLC MISS: 174026429977
LLC MISS: 174026423848
LLC MISS: 174026420485
LLC MISS: 2777491168053
LLC MISS: 2777491165106
LLC MISS: 174026424623
LLC MISS: 174026425559
LLC MISS: 174026425566
LLC MISS: 2777491166325
LLC MISS: 2777491166318
LLC MISS: 2777491166326
LLC MISS: 2777491166319
LLC MISS: 174026432135
LLC MISS: 174026418773
LLC MISS: 2777491168012
LLC MISS: 2777491166296
LLC MISS: 2777491166297
LLC MISS: 2777491166298
LLC MISS: 174026418803
LLC MISS: 2777491166335
LLC MISS: 2777491166313
LLC MISS: 2777491166321
LLC MISS: 2777491168027
LLC MISS: 174026424604
LLC MISS: 174026420506
LLC MISS: 174026420515
LLC MISS: 174026429991
LLC MISS: 174026430006
LLC MISS: 174026432151
LLC MISS: 174026432144
LLC MISS: 174026422661
LLC MISS: 174026425565
LLC MISS: 174026425567
LLC MISS: 174026425598
LLC MISS: 174026425576
LLC MISS: 174026425584
LLC MISS: 174026425597
LLC MISS: 174026425575
LLC MISS: 174026425583
LLC MISS: 174026429880
LLC MISS: 174026423850
LLC MISS: 174026427651
LLC MISS: 174026427678
LLC MISS: 174026423843
LLC MISS: 174026427656
LLC MISS: 174026427670
LLC MISS: 174026427663
LLC MISS: 174026427687
LLC MISS: 174026427688
LLC MISS: 174026427691
LLC MISS: 174026427692
LLC MISS: 174026429563
LLC MISS: 174026429564
LLC MISS: 174026429535
LLC MISS: 174026423854
LLC MISS: 174026423853
LLC MISS: 174026423004
LLC MISS: 174026423003
LLC MISS: 174026426026
LLC MISS: 174026426033
LLC MISS: 174026426025
LLC MISS: 174026426032
LLC MISS: 174026426568
LLC MISS: 174026426569
LLC MISS: 174026422989
LLC MISS: 174026422988
LLC MISS: 174026429546
LLC MISS: 174026429547
LLC MISS: 174026427414
LLC MISS: 174026427421
LLC MISS: 174026419400
LLC MISS: 174026426068
LLC MISS: 251391422667
LLC MISS: 174026419676
LLC MISS: 2777491169037
LLC MISS: 2777491169024
LLC MISS: 251391422021
LLC MISS: 174026431500
LLC MISS: 174026431507
LLC MISS: 2777491167964
LLC MISS: 2384994520437
LLC MISS: 174026421204
LLC MISS: 174026423250
LLC MISS: 174026419521
LLC MISS: 174026422975
LLC MISS: 174026422967
LLC MISS: 174026423569
LLC MISS: 174026421026
LLC MISS: 174026421033
LLC MISS: 174026421027
LLC MISS: 174026421034
LLC MISS: 174026424109
LLC MISS: 174026430743
LLC MISS: 174026430744
LLC MISS: 174026420746
LLC MISS: 174026424678
LLC MISS: 174026425000
LLC MISS: 174026425033
LLC MISS: 174026425026
LLC MISS: 2777491165524
LLC MISS: 2777491165531
LLC MISS: 174026430772
LLC MISS: 174026419601
LLC MISS: 174026419594
LLC MISS: 174026424953
LLC MISS: 174026425062
LLC MISS: 251391422381
LLC MISS: 2777491165593
LLC MISS: 174026431460
LLC MISS: 174026422024
LLC MISS: 2777491165429
LLC MISS: 2777491165422
LLC MISS: 2777491165323
LLC MISS: 2777491165338
LLC MISS: 2777491164312
LLC MISS: 174026431635
LLC MISS: 174026426742
LLC MISS: 174026426749
LLC MISS: 174026426908
LLC MISS: 174026426900
LLC MISS: 174026426893
LLC MISS: 2777491169779
LLC MISS: 174026431647
LLC MISS: 174026431646
LLC MISS: 174026427436
LLC MISS: 174026427435
LLC MISS: 174026431361
LLC MISS: 174026420766
LLC MISS: 2777491164286
LLC MISS: 2777491164335
LLC MISS: 2777491166348
LLC MISS: 174026419672
LLC MISS: 251391425307
LLC MISS: 174026418612
LLC MISS: 174026418613
LLC MISS: 251391425241
LLC MISS: 251391425233
LLC MISS: 251391425226
LLC MISS: 251391425242
LLC MISS: 251391425234
LLC MISS: 251391425227
LLC MISS: 2777491165830
LLC MISS: 2777491165829
LLC MISS: 174026430750
LLC MISS: 174026430642
LLC MISS: 2777491164571
LLC MISS: 174026426107
LLC MISS: 174026418600
LLC MISS: 174026418608
LLC MISS: 2777491170264
LLC MISS: 2777491170296
LLC MISS: 174026418601
LLC MISS: 174026418609
LLC MISS: 251391425332
LLC MISS: 2777491169036
LLC MISS: 251391422478
LLC MISS: 251391422475
LLC MISS: 174026422952
LLC MISS: 2777491166374
LLC MISS: 2777491166373
LLC MISS: 2777491170192
LLC MISS: 2777491170199
LLC MISS: 174026421504
LLC MISS: 174026422031
LLC MISS: 174026422030
LLC MISS: 2777491165214
LLC MISS: 2777491165221
LLC MISS: 2777491167963
LLC MISS: 2777491165196
LLC MISS: 2777491165203
LLC MISS: 174026431465
LLC MISS: 2777491169441
LLC MISS: 2777491169434
LLC MISS: 174026431518
LLC MISS: 174026431516
LLC MISS: 2777491166360
LLC MISS: 2777491166439
LLC MISS: 2777491166402
LLC MISS: 174026426100
LLC MISS: 2627809317475
LLC MISS: 174026419550
LLC MISS: 2777491166414
LLC MISS: 2777491166407
LLC MISS: 174026431504
LLC MISS: 174026431505
LLC MISS: 2777491169076
LLC MISS: 251391425304
LLC MISS: 251391425335
LLC MISS: 251391424320
LLC MISS: 251391422029
LLC MISS: 251391424367
LLC MISS: 2777491167475
LLC MISS: 2777491167483
LLC MISS: 251391425298
LLC MISS: 251391425299
LLC MISS: 2777491170215
LLC MISS: 2777491170208
LLC MISS: 2777491170201
LLC MISS: 2777491170214
LLC MISS: 2777491170207
LLC MISS: 2777491170200
LLC MISS: 251391423927
LLC MISS: 251391423912
LLC MISS: 251391423928
LLC MISS: 251391423913
LLC MISS: 251391423890
LLC MISS: 251391423891
LLC MISS: 251391423892
LLC MISS: 174026431514
LLC MISS: 2777491170629
LLC MISS: 2777491168413
LLC MISS: 2777491170627
LLC MISS: 174026421096
LLC MISS: 251391422697
LLC MISS: 251391422682
LLC MISS: 251391422698
LLC MISS: 251391422683
LLC MISS: 2777491168404
LLC MISS: 2777491170357
LLC MISS: 2777491170358
LLC MISS: 174026419625
LLC MISS: 174026420774
LLC MISS: 2777491166924
LLC MISS: 2777491166939
LLC MISS: 174026418572
LLC MISS: 174026424646
LLC MISS: 174026426096
LLC MISS: 2777491165387
LLC MISS: 2777491165380
LLC MISS: 174026422048
LLC MISS: 174026426058
LLC MISS: 174026426078
LLC MISS: 251391422700
LLC MISS: 251391422703
LLC MISS: 174026420760
LLC MISS: 174026426701
LLC MISS: 174026421522
LLC MISS: 174026426923
LLC MISS: 174026427399
LLC MISS: 174026420747
LLC MISS: 174026431502
LLC MISS: 174026431510
LLC MISS: 2777491166383
LLC MISS: 174026426725
LLC MISS: 174026426064
LLC MISS: 174026422943
LLC MISS: 2777491165826
LLC MISS: 174026422930
LLC MISS: 174026422916
LLC MISS: 251391422522
LLC MISS: 251391422494
LLC MISS: 174026422045
LLC MISS: 174026426076
LLC MISS: 702778644532
LLC MISS: 2777491168391
LLC MISS: 2777491168387
LLC MISS: 2777491166429
LLC MISS: 174026416531
LLC MISS: 2777491170641
LLC MISS: 174026430735
LLC MISS: 174026431490
LLC MISS: 174026422969
LLC MISS: 174026422937
LLC MISS: 174026416515
LLC MISS: 174026430734
LLC MISS: 174026430778
LLC MISS: 174026430766
LLC MISS: 174026422951
LLC MISS: 174026430749
LLC MISS: 174026430783
LLC MISS: 174026430776
LLC MISS: 174026431519
LLC MISS: 2777491166437
LLC MISS: 2777491166436
LLC MISS: 2777491166401
LLC MISS: 2777491166430
LLC MISS: 174026431501
LLC MISS: 251391422713
LLC MISS: 251391422712
LLC MISS: 251391422692
LLC MISS: 174026431495
LLC MISS: 251391422688
LLC MISS: 251391422715
LLC MISS: 251391422714
LLC MISS: 2777491165857
LLC MISS: 174026426714
LLC MISS: 174026426721
LLC MISS: 702778644522
LLC MISS: 174026431545
LLC MISS: 174026420751
LLC MISS: 174026426933
LLC MISS: 174026426909
LLC MISS: 174026426924
LLC MISS: 174026431538
LLC MISS: 174026429176
LLC MISS: 174026429155
LLC MISS: 174026426080
LLC MISS: 174026426073
LLC MISS: 174026426066
LLC MISS: 174026419540
LLC MISS: 174026419608
LLC MISS: 174026426081
LLC MISS: 174026426083
LLC MISS: 174026422020
LLC MISS: 174026422021
LLC MISS: 174026422049
LLC MISS: 174026420730
LLC MISS: 174026422044
LLC MISS: 2777491165874
LLC MISS: 174026422039
LLC MISS: 174026419645
LLC MISS: 174026422051
LLC MISS: 174026420740
LLC MISS: 174026426716
LLC MISS: 174026431506
LLC MISS: 174026426705
LLC MISS: 174026426712
LLC MISS: 174026426739
LLC MISS: 174026416530
LLC MISS: 174026422073
LLC MISS: 174026419638
LLC MISS: 174026420767
LLC MISS: 174026419612
LLC MISS: 174026420748
LLC MISS: 174026420788
LLC MISS: 174026420736
LLC MISS: 174026420790
LLC MISS: 174026426071
LLC MISS: 174026419548
LLC MISS: 174026419558
LLC MISS: 2777491166382
LLC MISS: 2777491166349
LLC MISS: 2777491166381
LLC MISS: 251391422470
LLC MISS: 251391422485
LLC MISS: 2777491166359
LLC MISS: 2777491166350
LLC MISS: 2777491166386
LLC MISS: 2777491166387
LLC MISS: 2777491166378
LLC MISS: 251391422525
LLC MISS: 251391422526
LLC MISS: 2777491165840
LLC MISS: 2777491165832
LLC MISS: 2777491165839
LLC MISS: 2777491165831
LLC MISS: 2777491165870
LLC MISS: 174026426922
LLC MISS: 174026426929
LLC MISS: 2777491169737
LLC MISS: 2777491170343
LLC MISS: 174026429149
LLC MISS: 174026426917
LLC MISS: 251391422351
LLC MISS: 174026426057
LLC MISS: 174026426111
LLC MISS: 174026419580
LLC MISS: 174026426082
LLC MISS: 174026426075
LLC MISS: 174026426059
LLC MISS: 174026419538
LLC MISS: 174026426055
LLC MISS: 174026416521
LLC MISS: 174026416529
LLC MISS: 174026416532
LLC MISS: 2777491164604
LLC MISS: 2777491169767
LLC MISS: 174026426926
LLC MISS: 174026426913
LLC MISS: 174026420712
LLC MISS: 174026420720
LLC MISS: 174026420727
LLC MISS: 251391424574
LLC MISS: 251391424573
LLC MISS: 174026419695
LLC MISS: 2777491167945
LLC MISS: 2777491167960
LLC MISS: 174026429897
LLC MISS: 174026419693
LLC MISS: 174026419761
LLC MISS: 174026419754
LLC MISS: 174026419687
LLC MISS: 174026423255
LLC MISS: 174026423262
LLC MISS: 251391424888
LLC MISS: 2777491164264
LLC MISS: 174026429944
LLC MISS: 251391424617
LLC MISS: 174026419733
LLC MISS: 174026419740
LLC MISS: 2777491165577
LLC MISS: 2777491165622
LLC MISS: 2777491165217
LLC MISS: 174026424674
LLC MISS: 174026429901
LLC MISS: 174026421538
LLC MISS: 174026421546
LLC MISS: 174026424665
LLC MISS: 2777491165609
LLC MISS: 174026431425
LLC MISS: 174026431470
LLC MISS: 174026423251
LLC MISS: 174026423259
LLC MISS: 2627809317500
LLC MISS: 174026419454
LLC MISS: 174026421058
LLC MISS: 174026424687
LLC MISS: 174026423898
LLC MISS: 2777491165578
LLC MISS: 2777491164244
LLC MISS: 2777491164243
LLC MISS: 2627809317488
LLC MISS: 2627809317482
LLC MISS: 2627809317487
LLC MISS: 2627809317481
LLC MISS: 2777491169426
LLC MISS: 2777491169419
LLC MISS: 2777491169427
LLC MISS: 2777491169420
LLC MISS: 174026419697
LLC MISS: 174026419753
LLC MISS: 2777491165204
LLC MISS: 174026429896
LLC MISS: 174026429910
LLC MISS: 174026429917
LLC MISS: 174026432378
LLC MISS: 174026418565
LLC MISS: 174026429908
LLC MISS: 2777491165212
LLC MISS: 2777491165224
LLC MISS: 2777491165236
LLC MISS: 2777491165227
LLC MISS: 2777491165228
LLC MISS: 2777491165245
LLC MISS: 2777491165225
LLC MISS: 174026432357
LLC MISS: 174026432332
LLC MISS: 174026432347
LLC MISS: 2777491167956
LLC MISS: 2777491167940
LLC MISS: 174026418595
LLC MISS: 174026429900
LLC MISS: 2777491167962
LLC MISS: 2777491167950
LLC MISS: 2777491167939
LLC MISS: 2777491167988
LLC MISS: 174026421523
LLC MISS: 174026421508
LLC MISS: 2777491167995
LLC MISS: 2777491167986
LLC MISS: 174026421524
LLC MISS: 174026421509
LLC MISS: 2777491165398
LLC MISS: 174026432369
LLC MISS: 174026430491
LLC MISS: 174026430490
LLC MISS: 251391421835
LLC MISS: 251391421828
LLC MISS: 2777491169583
LLC MISS: 2777491165324
LLC MISS: 2777491165317
LLC MISS: 251391423165
LLC MISS: 251391423150
LLC MISS: 251391423128
LLC MISS: 2777491168201
LLC MISS: 2777491168194
LLC MISS: 174026430475
LLC MISS: 174026423074
LLC MISS: 251391421489
LLC MISS: 251391421488
LLC MISS: 2384994520417
LLC MISS: 174026421236
LLC MISS: 174026421237
LLC MISS: 2627809317338
LLC MISS: 2777491170036
LLC MISS: 174026419826
LLC MISS: 174026431416
LLC MISS: 2777491169838
LLC MISS: 174026426766
LLC MISS: 174026426752
LLC MISS: 2777491164343
LLC MISS: 2777491165539
LLC MISS: 2777491165535
LLC MISS: 2777491165549
LLC MISS: 2777491165556
LLC MISS: 2777491165550
LLC MISS: 2777491165557
LLC MISS: 174026431892
LLC MISS: 174026431899
LLC MISS: 174026426804
LLC MISS: 174026424075
LLC MISS: 2627809317190
LLC MISS: 174026424114
LLC MISS: 174026424082
LLC MISS: 174026424097
LLC MISS: 2777491169800
LLC MISS: 702778644537
LLC MISS: 174026419799
LLC MISS: 174026419807
LLC MISS: 174026426774
LLC MISS: 174026431920
LLC MISS: 174026431913
LLC MISS: 174026421614
LLC MISS: 174026424935
LLC MISS: 174026421613
LLC MISS: 174026421620
LLC MISS: 251391421872
LLC MISS: 251391421825
LLC MISS: 174026421584
LLC MISS: 174026421577
LLC MISS: 174026421618
LLC MISS: 174026424896
LLC MISS: 174026424954
LLC MISS: 2777491169562
LLC MISS: 2777491165315
LLC MISS: 2777491165316
LLC MISS: 2777491168587
LLC MISS: 2777491168588
LLC MISS: 174026423051
LLC MISS: 174026423056
LLC MISS: 174026423052
LLC MISS: 174026423057
LLC MISS: 174026428308
LLC MISS: 174026428315
LLC MISS: 2777491168105
LLC MISS: 174026423562
LLC MISS: 174026423055
LLC MISS: 174026423062
LLC MISS: 174026423605
LLC MISS: 2777491165360
LLC MISS: 2777491165369
LLC MISS: 2777491165361
LLC MISS: 174026431375
LLC MISS: 2777491170037
LLC MISS: 2384994520418
LLC MISS: 2384994520423
LLC MISS: 174026428006
LLC MISS: 2627809317332
LLC MISS: 174026428004
LLC MISS: 2627809317345
LLC MISS: 2777491169986
LLC MISS: 2627809317344
LLC MISS: 2384994520404
LLC MISS: 2384994520395
LLC MISS: 2384994520402
LLC MISS: 2384994520396
LLC MISS: 2384994520403
LLC MISS: 251391425251
LLC MISS: 174026424992
LLC MISS: 174026424985
LLC MISS: 2777491164314
LLC MISS: 174026424983
LLC MISS: 174026424974
LLC MISS: 174026425003
LLC MISS: 251391421480
LLC MISS: 251391421495
LLC MISS: 251391421502
LLC MISS: 251391421479
LLC MISS: 251391421471
LLC MISS: 2777491164299
LLC MISS: 2777491164328
LLC MISS: 2777491164298
LLC MISS: 2777491164327
LLC MISS: 174026424962
LLC MISS: 174026424963
LLC MISS: 174026424984
LLC MISS: 174026418747
LLC MISS: 2627809317546
LLC MISS: 2627809317545
LLC MISS: 2627809317544
LLC MISS: 251391422579
LLC MISS: 251391422586
LLC MISS: 2777491165926
LLC MISS: 174026427542
LLC MISS: 174026427549
LLC MISS: 174026427541
LLC MISS: 174026427548
LLC MISS: 2777491167367
LLC MISS: 2777491167374
LLC MISS: 2777491167369
LLC MISS: 2777491165912
LLC MISS: 251391421783
LLC MISS: 251391421916
LLC MISS: 251391421923
LLC MISS: 251391421939
LLC MISS: 251391421947
LLC MISS: 2777491170532
LLC MISS: 251391422535
LLC MISS: 2777491170448
LLC MISS: 2777491170490
LLC MISS: 251391422286
LLC MISS: 251391422293
LLC MISS: 251391421787
LLC MISS: 2627809317087
LLC MISS: 2627809317094
LLC MISS: 174026420075
LLC MISS: 174026420388
LLC MISS: 174026420459
LLC MISS: 174026420451
LLC MISS: 2627809317061
LLC MISS: 174026420460
LLC MISS: 174026420452
LLC MISS: 251391421749
LLC MISS: 251391421899
LLC MISS: 2384994520489
LLC MISS: 174026420577
LLC MISS: 2627809317003
LLC MISS: 2627809317423
LLC MISS: 2384994520317
LLC MISS: 2627809317432
LLC MISS: 2384994520260
LLC MISS: 2384994520302
LLC MISS: 174026418727
LLC MISS: 2384994520570
LLC MISS: 2384994520507
LLC MISS: 174026431840
LLC MISS: 2777491167111
LLC MISS: 174026420968
LLC MISS: 174026420969
LLC MISS: 2627809316965
LLC MISS: 251391423092
LLC MISS: 2384994520370
LLC MISS: 2627809316931
LLC MISS: 2777491169094
LLC MISS: 2777491169108
LLC MISS: 2777491168807
LLC MISS: 251391422998
LLC MISS: 2627809317621
LLC MISS: 2627809317552
LLC MISS: 2627809317543
LLC MISS: 2627809316992
LLC MISS: 174026423491
LLC MISS: 251391423250
LLC MISS: 2627809317429
LLC MISS: 251391422997
LLC MISS: 251391423306
LLC MISS: 251391423351
LLC MISS: 174026421319
LLC MISS: 174026421361
LLC MISS: 2627809317028
LLC MISS: 2627809317098
LLC MISS: 2627809316981
LLC MISS: 2627809316990
LLC MISS: 251391423435
LLC MISS: 174026421961
LLC MISS: 174026421960
LLC MISS: 2627809316887
LLC MISS: 174026422108
LLC MISS: 174026422101
LLC MISS: 2777491167829
LLC MISS: 2777491168715
LLC MISS: 2777491167830
LLC MISS: 174026422400
LLC MISS: 2627809316832
LLC MISS: 2627809316824
LLC MISS: 2627809316817
LLC MISS: 174026430978
LLC MISS: 174026422615
LLC MISS: 174026422638
LLC MISS: 174026422631
LLC MISS: 174026422645
LLC MISS: 2627809316790
LLC MISS: 174026432432
LLC MISS: 251391423373
LLC MISS: 174026430983
LLC MISS: 251391423558
LLC MISS: 251391422643
LLC MISS: 251391422650
LLC MISS: 174026430992
LLC MISS: 174026431972
LLC MISS: 174026431973
LLC MISS: 174026431975
LLC MISS: 174026431027
LLC MISS: 174026431983
LLC MISS: 2777491168454
LLC MISS: 2777491168140
LLC MISS: 2777491168147
LLC MISS: 251391424065
LLC MISS: 174026430296
LLC MISS: 251391422538
LLC MISS: 174026418732
LLC MISS: 174026423116
LLC MISS: 174026432044
LLC MISS: 2777491166158
LLC MISS: 174026432003
LLC MISS: 174026431987
LLC MISS: 174026426628
LLC MISS: 174026431822
LLC MISS: 2777491166192
LLC MISS: 174026431777
LLC MISS: 2777491167858
LLC MISS: 174026431705
LLC MISS: 251391424270
LLC MISS: 251391422566
LLC MISS: 2777491167723
LLC MISS: 174026431574
LLC MISS: 174026431567
LLC MISS: 251391422986
LLC MISS: 2777491167418
LLC MISS: 2777491167410
LLC MISS: 174026423796
LLC MISS: 174026423791
LLC MISS: 2777491167402
[...]
LLC MISS: 2438310492172
LLC MISS: 2777491179140
LLC MISS: 2777491179147
LLC MISS: 2438310492165
LLC MISS: 4092079250179
LLC MISS: 2438310492183
LLC MISS: 2438310492184
LLC MISS: 2438310483506
LLC MISS: 2438310483505
LLC MISS: 2438310492166
LLC MISS: 2438310492167
LLC MISS: 2438310492175
LLC MISS: 3704300930974
LLC MISS: 3704300930966
LLC MISS: 643953701051
LLC MISS: 643953701008
LLC MISS: 643953701029
LLC MISS: 87670335719
LLC MISS: 87670335727
LLC MISS: 87670335718
LLC MISS: 87670335726
LLC MISS: 87670342312
LLC MISS: 87670342326
LLC MISS: 3704300932636
LLC MISS: 3704300932637
LLC MISS: 3704300932608
LLC MISS: 3704300932615
LLC MISS: 2438310495746
LLC MISS: 2438310495761
LLC MISS: 2777491181737
LLC MISS: 87670342276
LLC MISS: 2777491188260
LLC MISS: 2777491179151
LLC MISS: 87670340786
LLC MISS: 87670340773
LLC MISS: 87670340764
LLC MISS: 87670335713
LLC MISS: 87670335704
LLC MISS: 87670335711
LLC MISS: 87670335696
LLC MISS: 3704300931728
LLC MISS: 660434118801
LLC MISS: 660434118787
LLC MISS: 3704300949775
LLC MISS: 3704300941154
LLC MISS: 3704300949769
LLC MISS: 3704300949776
LLC MISS: 1955683329635
LLC MISS: 1955683329621
LLC MISS: 3704300949784
LLC MISS: 2883033182401
LLC MISS: 660434118842
LLC MISS: 660434118835
LLC MISS: 3058491293186
LLC MISS: 3704300931723
LLC MISS: 3704300949812
LLC MISS: 3704300941167
LLC MISS: 3704300941144
LLC MISS: 3704300941122
LLC MISS: 660434118813
LLC MISS: 3058491293195
LLC MISS: 2883033182407
LLC MISS: 3058491293243
LLC MISS: 3058491293235
LLC MISS: 3475289709106
LLC MISS: 3475289709113
LLC MISS: 660434118798
LLC MISS: 87670333400
LLC MISS: 3058491293222
LLC MISS: 1955683329613
LLC MISS: 1955683329620
LLC MISS: 3704300946298
LLC MISS: 3704300931724
LLC MISS: 3704300941165
LLC MISS: 3704300941145
LLC MISS: 3704300931757
LLC MISS: 3704300931764
LLC MISS: 3704300931735
LLC MISS: 1861025312776
LLC MISS: 2883033179312
LLC MISS: 2883033179319
LLC MISS: 2883033179290
LLC MISS: 2883033179313
LLC MISS: 2883033182421
LLC MISS: 2883033179304
LLC MISS: 2883033179311
LLC MISS: 2883033179318
LLC MISS: 2883033179310
LLC MISS: 2883033180472
LLC MISS: 2883033180418
LLC MISS: 2883033179267
LLC MISS: 3704300949778
LLC MISS: 3704300949817
LLC MISS: 3704300949783
LLC MISS: 3704300949790
LLC MISS: 3704300949800
LLC MISS: 3704300949792
LLC MISS: 3704300949785
LLC MISS: 3704300949815
LLC MISS: 3704300931742
LLC MISS: 3704300931729
LLC MISS: 3704300931736
LLC MISS: 3704300946288
LLC MISS: 3704300946287
LLC MISS: 3704300946286
LLC MISS: 3704300946300
LLC MISS: 3704300946299
LLC MISS: 3704300931734
LLC MISS: 3704300931727
LLC MISS: 3704300941153
LLC MISS: 3704300941178
LLC MISS: 3704300941129
LLC MISS: 2777491189600
LLC MISS: 2777491183256
LLC MISS: 2777491189588
LLC MISS: 2777491196713
LLC MISS: 2777491171015
LLC MISS: 2777491196718
LLC MISS: 2777491196679
LLC MISS: 3704300927720
LLC MISS: 2777491183254
LLC MISS: 3704300927698
LLC MISS: 3704300927721
LLC MISS: 2777491196722
LLC MISS: 2777491196729
LLC MISS: 2777491196704
LLC MISS: 2777491196677
LLC MISS: 2777491196684
LLC MISS: 2777491196731
LLC MISS: 2777491196690
LLC MISS: 2777491196691
LLC MISS: 2777491196675
LLC MISS: 2777491196682
LLC MISS: 3704300927731
LLC MISS: 3704300927730
LLC MISS: 2777491196717
LLC MISS: 2777491196681
LLC MISS: 2777491171065
LLC MISS: 2777491171037
LLC MISS: 2777491189607
LLC MISS: 2777491189605
LLC MISS: 2777491189629
LLC MISS: 2777491189617
LLC MISS: 2777491189625
LLC MISS: 2777491189624
LLC MISS: 2777491189627
LLC MISS: 2777491189628
LLC MISS: 2777491189601
LLC MISS: 2777491189599
LLC MISS: 2777491183246
LLC MISS: 2777491183253
LLC MISS: 2777491171060
LLC MISS: 2777491171031
LLC MISS: 2777491171040
LLC MISS: 2777491172040
LLC MISS: 2777491171062
LLC MISS: 2777491171055
LLC MISS: 2094211496142
LLC MISS: 2094211496134
LLC MISS: 2777491172071
LLC MISS: 2777491172055
LLC MISS: 2777491172054
LLC MISS: 2777491196938
LLC MISS: 2777491196979
LLC MISS: 2777491174547
LLC MISS: 2094211469456
LLC MISS: 2094211469485
LLC MISS: 2094211479361
LLC MISS: 2777491194504
LLC MISS: 2777491194514
LLC MISS: 2777491194511
LLC MISS: 2777491194506
LLC MISS: 2094211469464
LLC MISS: 3022918910412
LLC MISS: 2094211468924
LLC MISS: 3022918910455
LLC MISS: 2777491181927
LLC MISS: 3022918910418
LLC MISS: 2777491183102
LLC MISS: 2777491182919
LLC MISS: 2777491181277
LLC MISS: 2094211479476
LLC MISS: 2777491183105
LLC MISS: 2777491183158
LLC MISS: 3704300947795
LLC MISS: 2777491183439
LLC MISS: 2777491175526
LLC MISS: 1707115176716
LLC MISS: 2777491173429
LLC MISS: 2777491173436
LLC MISS: 2094211478368
LLC MISS: 2094211479457
LLC MISS: 2777491182064
LLC MISS: 2094211477980
LLC MISS: 2777491182585
LLC MISS: 2094211478149
LLC MISS: 2777491183958
LLC MISS: 2094211477182
LLC MISS: 2094211477904
LLC MISS: 2094211477973
LLC MISS: 2777491178897
LLC MISS: 2777491178904
LLC MISS: 2777491182544
LLC MISS: 2777491184022
LLC MISS: 2777491184047
LLC MISS: 2777491175529
LLC MISS: 2094211477144
LLC MISS: 2094211476998
LLC MISS: 2777491184132
LLC MISS: 2094211477040
LLC MISS: 2777491184435
LLC MISS: 3704300949893
LLC MISS: 2777491178895
LLC MISS: 2777491183133
LLC MISS: 2438310485478
LLC MISS: 3704300951944
LLC MISS: 2777491184725
LLC MISS: 2777491184714
LLC MISS: 2777491184735
LLC MISS: 3985955675400
LLC MISS: 2094211476477
LLC MISS: 2777491183951
LLC MISS: 87670336142
LLC MISS: 87670336143
LLC MISS: 3704300952844
LLC MISS: 2094211468879
LLC MISS: 2777491181308
LLC MISS: 2777491181309
LLC MISS: 2094211475394
LLC MISS: 2094211475452
LLC MISS: 2094211475397
LLC MISS: 2094211477049
LLC MISS: 2094211476029
LLC MISS: 2094211475403
LLC MISS: 2438310486122
LLC MISS: 3704300952007
LLC MISS: 2094211474573
LLC MISS: 2438310486322
LLC MISS: 2094211475414
LLC MISS: 2777491184972
LLC MISS: 2777491184932
LLC MISS: 2777491184933
LLC MISS: 2094211480242
LLC MISS: 643953700630
LLC MISS: 2777491184776
LLC MISS: 2777491184768
LLC MISS: 2777491184814
LLC MISS: 87670344029
LLC MISS: 2094211475451
LLC MISS: 1707115177038
LLC MISS: 2777491184788
LLC MISS: 2094211474081
LLC MISS: 2777491173400
LLC MISS: 2094211474782
LLC MISS: 2438310485791
LLC MISS: 2438310485805
LLC MISS: 2094211472297
LLC MISS: 2094211472278
LLC MISS: 2777491184027
LLC MISS: 2777491184143
LLC MISS: 1707115179701
LLC MISS: 2094211479385
LLC MISS: 2094211474580
LLC MISS: 2438310487089
LLC MISS: 2438310487097
LLC MISS: 2094211474062
LLC MISS: 2094211474548
LLC MISS: 87670336769
LLC MISS: 2094211480734
LLC MISS: 2438310484095
LLC MISS: 2438310484080
LLC MISS: 2094211470823
LLC MISS: 2094211474172
LLC MISS: 2094211474123
LLC MISS: 2094211480652
LLC MISS: 2777491172125
LLC MISS: 3704300923325
LLC MISS: 1707115177034
LLC MISS: 2777491180887
LLC MISS: 3704300951973
LLC MISS: 3704300951959
LLC MISS: 3704300951550
LLC MISS: 3704300951539
LLC MISS: 87670360657
LLC MISS: 2094211474050
LLC MISS: 2883033183008
LLC MISS: 2777491181893
LLC MISS: 2438310489401
LLC MISS: 87670359800
LLC MISS: 87670359794
LLC MISS: 87670359801
LLC MISS: 2777491184392
LLC MISS: 2777491184389
LLC MISS: 2777491184388
LLC MISS: 3022918903615
LLC MISS: 2777491186899
LLC MISS: 2777491186918
LLC MISS: 2777491186925
LLC MISS: 2438310486895
LLC MISS: 2777491186722
LLC MISS: 2438310490271
LLC MISS: 2438310490256
LLC MISS: 2438310490257
LLC MISS: 87670360666
LLC MISS: 87670360681
LLC MISS: 2438310482892
LLC MISS: 2777491187227
LLC MISS: 2094211470036
LLC MISS: 2777491187048
LLC MISS: 3022918906246
LLC MISS: 3022918906254
LLC MISS: 3022918906255
LLC MISS: 2094211470166
LLC MISS: 2094211470180
LLC MISS: 2094211470167
LLC MISS: 2094211470181
LLC MISS: 2094211471560
LLC MISS: 2094211471567
LLC MISS: 2777491172812
LLC MISS: 643953701396
LLC MISS: 643953701388
LLC MISS: 2094211472272
LLC MISS: 2094211472279
LLC MISS: 2777491186279
LLC MISS: 2777491186246
LLC MISS: 1861025312989
LLC MISS: 2094211471570
LLC MISS: 2438310482272
LLC MISS: 2438310482279
LLC MISS: 87670361737
LLC MISS: 87670361744
LLC MISS: 87670360648
LLC MISS: 2094211470565
LLC MISS: 2777491187020
LLC MISS: 87670360647
LLC MISS: 2094211470023
LLC MISS: 2094211470016
LLC MISS: 2777491180904
LLC MISS: 2777491180911
LLC MISS: 2777491184939
LLC MISS: 2438310486894
LLC MISS: 3022918903585
LLC MISS: 2777491180891
LLC MISS: 1861025313025
LLC MISS: 2094211468168
LLC MISS: 2094211468176
LLC MISS: 2777491190525
LLC MISS: 1861025313244
LLC MISS: 1861025313251
LLC MISS: 2777491178736
LLC MISS: 3704300948463
LLC MISS: 835223750623
LLC MISS: 87670341282
LLC MISS: 2438310493157
LLC MISS: 2777491180741
LLC MISS: 2777491191431
LLC MISS: 3985955677065
LLC MISS: 2777491191712
LLC MISS: 87670341208
LLC MISS: 87670341215
LLC MISS: 1707115180364
LLC MISS: 1707115180371
LLC MISS: 2777491192076
LLC MISS: 87670361785
LLC MISS: 87670361756
LLC MISS: 87670361782
LLC MISS: 2438310494666
LLC MISS: 643953701512
LLC MISS: 643953701526
LLC MISS: 2438310494989
LLC MISS: 2438310494996
LLC MISS: 2777491193676
LLC MISS: 3704300944667
LLC MISS: 1707115179036
LLC MISS: 2094211496301
LLC MISS: 1707115178856
LLC MISS: 1707115178870
LLC MISS: 2883033176453
LLC MISS: 2883033176468
LLC MISS: 2883033176475
LLC MISS: 2777491193693
LLC MISS: 2777491194292
LLC MISS: 1707115179671
LLC MISS: 1707115179657
LLC MISS: 3704300943306
LLC MISS: 3704300945503
LLC MISS: 3704300945525
LLC MISS: 2438310496479
LLC MISS: 2482915523906
LLC MISS: 2777491177992
LLC MISS: 3704300946519
LLC MISS: 3704300946512
LLC MISS: 1707115176543
LLC MISS: 87670342931
LLC MISS: 1707115174531
LLC MISS: 1707115174540
LLC MISS: 1707115177266
LLC MISS: 2777491194509
LLC MISS: 2777491194516
LLC MISS: 2777491194931
LLC MISS: 1514623703299
LLC MISS: 1707115177039
LLC MISS: 2883033177079
LLC MISS: 2883033177086
LLC MISS: 2883033177057
LLC MISS: 1707115176733
LLC MISS: 1707115176734
LLC MISS: 2438310487084
LLC MISS: 2438310487091
LLC MISS: 3704300944823
LLC MISS: 3704300944830
LLC MISS: 87670338188
LLC MISS: 87670347952
LLC MISS: 1707115173886
LLC MISS: 3022918892321
LLC MISS: 2777491180325
LLC MISS: 2777491194266
LLC MISS: 3022918921419
LLC MISS: 3022918921427
LLC MISS: 2777491174319
LLC MISS: 3704300943354
LLC MISS: 1514623703334
LLC MISS: 1707115173859
LLC MISS: 3022918919133
LLC MISS: 2438310492370
LLC MISS: 3704300943357
LLC MISS: 3704300943358
LLC MISS: 4092079250458
LLC MISS: 3022918894779
LLC MISS: 2777491195524
LLC MISS: 2777491195531
LLC MISS: 3704300921052
LLC MISS: 643953701401
LLC MISS: 3022918895064
LLC MISS: 3022918895065
LLC MISS: 2777491183085
LLC MISS: 2777491171170
LLC MISS: 2438310489342
LLC MISS: 87670358117
LLC MISS: 2094211485379
LLC MISS: 2094211485417
LLC MISS: 3704300941535
LLC MISS: 3022918896375
LLC MISS: 87670347283
LLC MISS: 3022918921426
LLC MISS: 3704300931784
LLC MISS: 2777491174115
LLC MISS: 3022918897818
LLC MISS: 3022918897813
LLC MISS: 3022918897809
LLC MISS: 3985955677091
LLC MISS: 3022918920405
LLC MISS: 3022918920434
LLC MISS: 87670348062
LLC MISS: 3022918894966
LLC MISS: 3704300940312
LLC MISS: 3022918894502
LLC MISS: 3022918918877
LLC MISS: 3022918916162
LLC MISS: 3022918919162
LLC MISS: 3022918919163
LLC MISS: 3022918899317
LLC MISS: 3022918899324
LLC MISS: 3704300924579
LLC MISS: 3704300924736
LLC MISS: 3704300923271
LLC MISS: 3022918919099
LLC MISS: 3022918919100
LLC MISS: 3022918919085
LLC MISS: 3022918917961
LLC MISS: 3022918918013
LLC MISS: 2883033181707
LLC MISS: 3475289709320
LLC MISS: 3475289709313
LLC MISS: 3022918916206
LLC MISS: 2883033183027
LLC MISS: 3022918895567
LLC MISS: 3022918900187
LLC MISS: 3022918900188
LLC MISS: 3704300937804
LLC MISS: 3704300938395
LLC MISS: 3704300938402
LLC MISS: 3704300925955
LLC MISS: 3704300925978
LLC MISS: 3704300938098
LLC MISS: 3704300937865
LLC MISS: 3704300937803
LLC MISS: 3704300931806
LLC MISS: 3704300931792
LLC MISS: 660434118291
LLC MISS: 2438310483210
LLC MISS: 2438310483217
LLC MISS: 3704300927560
LLC MISS: 3704300927561
LLC MISS: 2777491183065
LLC MISS: 2883033179505
LLC MISS: 2883033179512
LLC MISS: 3022918906251
LLC MISS: 3022918906285
LLC MISS: 3022918903353
LLC MISS: 3022918903354
LLC MISS: 87670332340
LLC MISS: 87670351120
LLC MISS: 87670351113
LLC MISS: 3022918913505
LLC MISS: 2777491175539
LLC MISS: 2777491175546
LLC MISS: 2777491177323
LLC MISS: 2777491177316
LLC MISS: 2777491175656
LLC MISS: 3022918903345
LLC MISS: 3022918904648
LLC MISS: 3022918904649
LLC MISS: 3022918913472
LLC MISS: 3022918913485
LLC MISS: 2777491174752
LLC MISS: 2777491175275
LLC MISS: 2777491175286
LLC MISS: 2777491176237
LLC MISS: 3022918903333
LLC MISS: 3022918907578
LLC MISS: 87670354857
LLC MISS: 87670354828
LLC MISS: 87670354835
LLC MISS: 3022918905717
LLC MISS: 3022918905710
LLC MISS: 3704300928957
LLC MISS: 3022918910427
LLC MISS: 87670353203
LLC MISS: 2482915524898
LLC MISS: 87670353835
LLC MISS: 87670353843
LLC MISS: 1862882891271
LLC MISS: 3704300933489
LLC MISS: 3704300933479
LLC MISS: 3704300933486
LLC MISS: 3704300933493
LLC MISS: 3704300933480
LLC MISS: 3704300933487
LLC MISS: 3704300933494
LLC MISS: 3022918907304
LLC MISS: 3022918907303
LLC MISS: 2094211481271
LLC MISS: 2094211481272
LLC MISS: 2094211481265
LLC MISS: 3022918905727
LLC MISS: 3022918905678
LLC MISS: 3022918905708
LLC MISS: 3022918905701
LLC MISS: 2094211490103
LLC MISS: 3022918894673
LLC MISS: 3022918907851
LLC MISS: 3022918907859
LLC MISS: 3022918911088
LLC MISS: 2777491173838
LLC MISS: 87670331192
LLC MISS: 3022918910447
LLC MISS: 3022918894684
LLC MISS: 87670353191
LLC MISS: 3022918906288
LLC MISS: 2094211489125
LLC MISS: 3022918903611
LLC MISS: 2094211490799
LLC MISS: 2094211490792
LLC MISS: 3022918909893
LLC MISS: 3022918909575
LLC MISS: 3022918909582
LLC MISS: 2883033183381
LLC MISS: 2883033183361
LLC MISS: 2883033183368
LLC MISS: 3704300932341
LLC MISS: 2094211479475
LLC MISS: 2094211497178
LLC MISS: 2094211497193
LLC MISS: 2094211497179
LLC MISS: 3704300923285
LLC MISS: 1707115177068
LLC MISS: 3704300924539
LLC MISS: 2094211476995
LLC MISS: 2094211477009
LLC MISS: 2777491176527
LLC MISS: 3704300949900
LLC MISS: 3704300949907
LLC MISS: 3704300952018
LLC MISS: 3704300952026
LLC MISS: 2094211468910
LLC MISS: 2094211468925
LLC MISS: 2777491174118
LLC MISS: 3022918909935
LLC MISS: 2777491194823
LLC MISS: 87670347967
LLC MISS: 3704300928949
LLC MISS: 3704300923288
LLC MISS: 3022918910403
LLC MISS: 2777491172011
LLC MISS: 1707115179661
LLC MISS: 2438310484058
LLC MISS: 87670360662
LLC MISS: 2438310488301
LLC MISS: 2094211489101
LLC MISS: 3022918902249
LLC MISS: 87670360481
LLC MISS: 2777491175550
LLC MISS: 2777491175511
LLC MISS: 3704300951658
LLC MISS: 2438310482856
LLC MISS: 3022918915405
LLC MISS: 3058491293403
LLC MISS: 3058491293394
LLC MISS: 2438310483215
LLC MISS: 3022918906267
LLC MISS: 3022918906275
LLC MISS: 2777491187237
LLC MISS: 2777491187236
LLC MISS: 87670349941
LLC MISS: 2777491174091
LLC MISS: 3704300937158
LLC MISS: 87670347963
LLC MISS: 2094211481564
LLC MISS: 2094211481557
LLC MISS: 2094211481550
LLC MISS: 87670341450
LLC MISS: 3704300935107
LLC MISS: 87670355746
LLC MISS: 3704300937328
LLC MISS: 3022918915299
LLC MISS: 3985955677099
LLC MISS: 87670340808
LLC MISS: 2777491188789
LLC MISS: 3704300951077
LLC MISS: 2438310486879
LLC MISS: 3022918919160
LLC MISS: 3704300939868
LLC MISS: 3022918916161
LLC MISS: 3704300952731
LLC MISS: 2094211482261
LLC MISS: 87670344027
LLC MISS: 2777491192097
LLC MISS: 3704300941531
LLC MISS: 2094211470813
LLC MISS: 2438310483218
LLC MISS: 3022918921441
LLC MISS: 3704300940800
LLC MISS: 3704300947786
LLC MISS: 1955683329497
LLC MISS: 1955683329490
LLC MISS: 2094211473743
LLC MISS: 2883033176454
LLC MISS: 87670341455
LLC MISS: 87670341463
LLC MISS: 2777491180298
LLC MISS: 2777491194236
LLC MISS: 87670344012
LLC MISS: 2777491173388
LLC MISS: 660434119116
LLC MISS: 660434119160
LLC MISS: 1707115176541
LLC MISS: 1707115176548
LLC MISS: 2883033183341
LLC MISS: 3022918901506
LLC MISS: 2777491195421
LLC MISS: 660434119002
LLC MISS: 2777491194197
LLC MISS: 3704300943504
LLC MISS: 2094211473784
LLC MISS: 660434119140
LLC MISS: 660434119154
LLC MISS: 3022918906272
LLC MISS: 3022918906287
LLC MISS: 3704300948259
LLC MISS: 2094211478206
LLC MISS: 87670340843
LLC MISS: 2094211478169
LLC MISS: 87670340844
LLC MISS: 3704300948251
LLC MISS: 1707115174162
LLC MISS: 3022918908698
LLC MISS: 3022918894508
LLC MISS: 87670330528
LLC MISS: 1707115177229
LLC MISS: 3022918894465
LLC MISS: 3704300920425
LLC MISS: 3704300920427
LLC MISS: 2094211478162
LLC MISS: 2094211478164
LLC MISS: 2094211473756
LLC MISS: 2777491195444
LLC MISS: 2094211477003
LLC MISS: 2438310486859
LLC MISS: 2438310486852
LLC MISS: 2438310483222
LLC MISS: 1707115179707
LLC MISS: 2777491193882
LLC MISS: 2777491193875
LLC MISS: 2777491192626
LLC MISS: 87670355726
LLC MISS: 2094211473781
LLC MISS: 2883033180271
LLC MISS: 3022918915268
LLC MISS: 2777491186803
LLC MISS: 2777491186810
LLC MISS: 3022918906264
LLC MISS: 87670341263
LLC MISS: 2777491189819
Finished CPU 0 instructions: 1000000 cycles: 1622803 cumulative IPC: 0.616218 (Simulation time: 0 hr 0 min 4 sec) 

ChampSim completed all CPUs

Region of Interest Statistics

CPU 0 cumulative IPC: 0.616218 instructions: 1000000 cycles: 1622803
L1D TOTAL     ACCESS:     434866  HIT:     388073  MISS:      46793
L1D LOAD      ACCESS:     273251  HIT:     244196  MISS:      29055
L1D RFO       ACCESS:     103105  HIT:     102784  MISS:        321
L1D PREFETCH  ACCESS:      58510  HIT:      41093  MISS:      17417
L1D WRITEBACK ACCESS:          0  HIT:          0  MISS:          0
L1D PREFETCH  REQUESTED:      64321  ISSUED:      63502  USEFUL:       3145  USELESS:      14575
L1D AVERAGE MISS LATENCY: 83.1393 cycles
L1I TOTAL     ACCESS:     183893  HIT:     183893  MISS:          0
L1I LOAD      ACCESS:     183893  HIT:     183893  MISS:          0
L1I RFO       ACCESS:          0  HIT:          0  MISS:          0
L1I PREFETCH  ACCESS:          0  HIT:          0  MISS:          0
L1I WRITEBACK ACCESS:          0  HIT:          0  MISS:          0
L1I PREFETCH  REQUESTED:          0  ISSUED:          0  USEFUL:          0  USELESS:          0
L1I AVERAGE MISS LATENCY: -nan cycles
L2C TOTAL     ACCESS:      49201  HIT:      24433  MISS:      24768
L2C LOAD      ACCESS:      27821  HIT:      16748  MISS:      11073
L2C RFO       ACCESS:        320  HIT:        289  MISS:         31
L2C PREFETCH  ACCESS:      18651  HIT:       4992  MISS:      13659
L2C WRITEBACK ACCESS:       2409  HIT:       2404  MISS:          5
L2C PREFETCH  REQUESTED:          0  ISSUED:          0  USEFUL:        665  USELESS:      13156
L2C AVERAGE MISS LATENCY: 126.006 cycles
LLC TOTAL     ACCESS:      25572  HIT:      13432  MISS:      12140
LLC LOAD      ACCESS:      11073  HIT:      10301  MISS:        772
LLC RFO       ACCESS:         31  HIT:         31  MISS:          0
LLC PREFETCH  ACCESS:      13659  HIT:       2294  MISS:      11365
LLC WRITEBACK ACCESS:        809  HIT:        806  MISS:          3
LLC PREFETCH  REQUESTED:          0  ISSUED:          0  USEFUL:        116  USELESS:       2387
LLC AVERAGE MISS LATENCY: 181.328 cycles
Major fault: 0 Minor fault: 3745

L1D PREFETCH STATS
---------------------------------------------------------------------------------------------------------
Number of Global stream prefetches: 309
Number of Constant Stride prefetches: 31612
Number of Complex Stride prefetches: 38317
Number of Next Line prefetches: 32347
Percentage of Global stream prefetches: 0.301214
Percentage of Constant Stride prefetches: 30.8154
Percentage of Complex Stride prefetches: 37.3515
Percentage of Next Line prefetches: 31.5319

DRAM Statistics
 CHANNEL 0
 RQ ROW_BUFFER_HIT:       1306  ROW_BUFFER_MISS:      10831
 DBUS_CONGESTED:       2194
 WQ ROW_BUFFER_HIT:         30  ROW_BUFFER_MISS:        139  FULL:          0

 AVG_CONGESTED_CYCLE: 5

CPU 0 Branch Prediction Accuracy: 93.9801% MPKI: 14.478 Average ROB Occupancy at Mispredict: 33.2116

Branch types
NOT_BRANCH: 759164 75.9164%
BRANCH_DIRECT_JUMP: 21286 2.1286%
BRANCH_INDIRECT: 0 0%
BRANCH_CONDITIONAL: 158635 15.8635%
BRANCH_DIRECT_CALL: 29088 2.9088%
BRANCH_INDIRECT_CALL: 1202 0.1202%
BRANCH_RETURN: 30291 3.0291%
BRANCH_OTHER: 0 0%

