
*** ChampSim Multicore Out-of-Order Simulator ***

Warmup Instructions: 1000000
Simulation Instructions: 1000000
Number of CPUs: 1
LLC sets: 2048
LLC ways: 16
Off-chip DRAM Size: 4096 MB Channels: 1 Width: 64-bit Data Rate: 3200 MT/s

CPU 0 runs ../traces//cc-5.trace.gz
CPU 0 Bimodal branch predictor
702778644406
702778644407
702778644406
702778644458
702778644540
702778644457
702778644455
702778644455
702778644605
702778644541
702778644454
702778644606
702778644540
702778644705
702778644706
702778644701
702778644703
702778644704
702778644702
702778644899
702778645040
702778644900
702778644703
702778644540
702778645041
702778644704
702778645091
702778645092
702778644899
702778644899
702778644899
702778644703
702778644454
702778644454
702778644454
702778644454
702778644701
702778644601
702778644454
702778644702
702778644454
702778644602
702778644454
702778644454
702778644704
702778644537
702778644538
702778644701
702778644453
702778644702
702778644453
702778644453
702778644704
702778644702
702778644701
702778644435
702778644435
702778644704
702778645091
702778644437
702778644605
702778644540
702778645377
702778644432
702778644703
702778644704
702778645378
702778644435
702778644435
702778644703
702778644899
702778644436
702778645515
702778644435
702778644432
702778644432
702778644432
702778645516
702778644432
702778644431
702778644431
702778645514
702778644431
702778644431
702778644430
702778644430
702778644430
702778644430
702778644430
702778645516
702778644430
702778645517
702778644430
702778644429
702778645516
702778644429
702778644427
702778644428
702778644427
702778644600
702778644427
702778644426
702778644603
702778644604
702778645424
702778645425
702778644597
702778644598
702778644538
702778644539
702778645387
702778645388
702778645091
702778644426
702778644426
702778644426
702778644426
702778644901
702778644902
702778644425
702778644425
702778644423
702778644424
702778644424
702778644425
702778644425
702778645425
702778644425
702778644425
702778645426
702778644425
702778644597
702778645427
702778644423
702778644538
702778644690
702778645387
702778645832
702778645387
702778644691
702778644691
702778645833
702778644424
702778644692
702778644424
702778644424
702778644424
702778644424
702778644423
702778644690
702778645426
702778644685
702778645426
702778644425
702778644686
702778644425
702778644425
702778645935
702778644426
702778645936
702778644425
702778645832
702778645832
702778644690
702778645832
702778645935
702778645832
702778644685
702778645935
702778644690
702778645935
702778644690
702778645935
702778645935
702778645935
702778644426
702778645935
702778644685
702778644685
702778644685
702778645935
702778645999
702778645935
702778644426
702778644426
702778644685
702778644426
702778644685
702778646000
702778644427
702778644427
702778645935
702778644702
702778644701
702778645935
702778645999
702778644900
702778644429
702778644540
702778644429
702778644430
702778644430
702778644427
702778644427
702778644430
702778644702
702778644702
702778644430
702778644701
702778644702
702778644704
702778644430
702778644430
702778644701
702778644430
702778644701
702778644701
702778644430
702778644702
702778644702
702778644701
702778644431
702778644702
702778644701
702778644702
702778644431
702778644702
702778644701
702778645040
702778645040
702778645040
702778645040
702778644431
702778645040
702778644431
702778645040
702778644430
702778644430
702778644430
702778644430
702778644430
702778645935
702778645935
702778645935
702778645935
702778645935
702778645935
702778645935
702778645040
702778645935
702778644430
702778645935
702778645040
702778645935
702778645040
702778645935
702778645040
702778644430
702778645935
702778645040
702778645040
702778644430
702778645935
702778645935
702778644430
702778644702
702778644430
702778644431
702778644431
702778644431
702778644431
702778644431
702778644435
702778644432
702778645040
702778644454
702778645040
702778644432
702778644433
702778644432
702778644432
702778645081
702778645082
702778645081
702778644705
702778644433
702778644433
702778644433
702778644433
702778644454
702778644455
702778644434
702778646252
702778646250
702778646253
702778644433
702778646251
702778644433
702778644456
702778644433
702778644434
702778644434
702778644704
702778644435
702778644434
702778644434
702778644434
702778644434
702778644434
702778644701
702778644454
702778644702
702778644433
702778644433
702778644433
702778644432
702778644433
702778644432
702778646230
702778644432
702778646231
702778644432
702778644453
702778644433
702778644434
702778644435
702778644453
702778644435
702778645515
702778644434
702778644432
702778644432
702778644432
702778644432
702778644431
702778644431
702778644431
702778644431
702778645381
702778644431
702778644431
702778645382
702778644431
702778644434
702778644434
702778644435
702778644433
702778645935
702778644434
702778644702
702778644432
702778645040
702778644432
702778644432
702778644432
702778644433
702778644435
702778644432
702778645377
702778644435
702778644704
702778644702
702778644701
702778644702
702778644435
702778645040
702778644435
702778645515
702778644432
702778644432
702778644432
702778644432
702778644431
702778644431
702778644431
702778644540
702778645381
702778644431
702778644431
702778644431
702778644431
702778644435
702778645935
702778644435
702778644702
702778644453
702778644432
702778645040
702778644540
702778644453
702778644701
702778644703
702778644432
702778644453
702778644899
702778644432
702778644701
702778644703
702778644454
702778644432
702778644899
702778644454
702778644454
702778644454
702778644705
702778644899
702778644703
702778644454
702778644457
702778644540
702778644457
702778645091
702778644703
702778644899
702778644458
702778644899
702778644899
702778644458
702778644459
702778644459
702778644460
702778644458
702778646855
702778644411
702778646856
702778644412
702778645832
702778645832
702778646938
702778645832
702778646939
702778645832
702778644690
702778644690
702778644690
702778645832
702778646984
702778645832
702778646952
702778644458
702778646985
702778644457
702778644603
702778644457
702778646953
702778644457
702778644457
702778644899
702778644457
702778644457
702778644597
702778644457
702778644538
702778644539
702778644540
702778644457
702778645426
702778645425
702778645427
702778644691
702778645426
702778645426
702778645425
702778645426
702778644457
702778645387
702778645426
702778644457
702778647048
702778644901
702778644457
702778644467
702778644457
702778647049
702778645091
702778644458
702778644468
702778644458
702778644413
702778644900
702778644414
702778647106
702778647107
702778644690
702778644690
702778647106
702778645832
702778647106
702778645832
702778646856
702778646856
702778646856
702778646856
702778647106
702778645426
702778645426
702778646855
702778646984
702778647106
702778647106
702778647106
702778645386
702778644458
702778644457
702778644457
702778644457
702778644457
702778644457
702778644457
702778644457
702778644456
702778644460
702778644456
702778644456
702778644456
702778647106
702778644460
702778644456
702778644457
702778644460
702778644457
702778644463
702778644460
702778644461
702778644460
702778644457
702778644458
702778644464
702778644457
702778644458
702778644458
702778644457
702778644457
702778644458
702778644458
702778644457
702778644457
702778644457
702778644457
702778644457
702778644456
702778644406
702778646926
702778646927
702778644456
702778644456
702778646934
702778646935
702778644456
702778644456
702778644603
702778645424
702778644597
702778644538
702778645387
702778645091
702778644455
702778645425
702778645426
702778644455
702778646855
702778644455
702778646856
702778644901
702778644691
702778644455
702778646857
702778644455
702778644455
702778644455
702778644597
702778644538
702778645387
702778645387
702778644690
702778644453
702778644690
702778644454
702778644454
702778644454
702778644454
702778644454
702778644454
702778644454
702778644454
702778644454
702778644453
702778644453
702778644454
702778644453
702778644453
702778646855
702778644453
702778646855
702778644453
702778644690
702778645426
702778645426
702778646984
702778644454
702778646856
702778646856
702778644690
702778646856
702778646856
702778644690
702778644690
702778644900
702778644690
702778644690
702778646856
702778646856
702778645832
702778645832
702778645426
702778645426
702778645832
702778645832
702778646855
702778644455
702778645832
702778646855
702778646984
702778644455
702778644455
702778644455
702778644455
702778644455
702778644455
702778644456
702778644456
702778644456
702778644463
702778644456
702778644456
702778644459
702778644459
702778644459
702778644457
702778645054
702778645053
702778645055
702778646856
702778646856
702778646856
702778646856
702778646857
702778646857
702778646857
702778646857
702778646858
702778646858
702778646858
702778646859
702778646859
702778646859
702778646860
702778646860
702778646860
702778646861
702778646861
702778646861
702778646862
702778646862
702778646862
702778646863
702778646863
702778646863
702778646864
702778646864
702778646864
702778646865
702778646865
702778646865
702778646866
702778646866
702778646866
702778646867
702778646867
702778646867
702778646868
702778646868
702778646868
702778646869
702778646869
702778646869
702778646870
702778646870
702778646870
702778646871
702778646871
702778646871
702778646872
702778646872
702778646872
702778646873
702778646873
702778646873
702778646874
702778646874
702778646874
702778646875
702778646875
702778646875
702778646876
702778646876
702778646876
702778646877
702778646877
702778646877
702778646878
702778646878
702778646878
702778646879
702778646879
702778646879
702778646880
702778646880
702778646880
702778646881
702778646881
702778646881
702778646882
702778646882
702778646882
702778646883
702778646883
702778646883
702778646884
702778646884
702778646884
702778646885
702778646885
702778646885
702778646886
702778646886
702778646886
702778646887
702778646887
702778646887
702778646888
702778646888
702778646888
702778646889
702778646889
702778646889
702778646890
702778646890
702778646890
702778646891
702778646891
702778646891
702778646892
702778646892
702778646892
702778646893
702778646893
702778646893
702778646894
702778646894
702778646894
702778646895
702778646895
702778646895
702778646896
702778646896
702778646896
702778646897
702778646897
702778646897
702778646898
702778646898
702778646898
702778646899
702778646899
702778646899
702778646900
702778646900
702778646900
702778646901
702778646901
702778646901
702778646902
702778646902
702778646902
702778646903
702778646903
702778646903
702778646904
702778646904
702778646904
702778646905
702778646905
702778646905
702778646906
702778646906
702778646906
702778646907
702778646907
702778646907
702778646908
702778646908
702778646908
702778646909
702778646909
702778646909
702778646910
702778646910
702778646910
702778646911
702778646911
702778646911
702778647168
702778647168
702778647168
702778647169
702778647169
702778647169
702778647170
702778647170
702778647170
702778647171
702778647171
702778647171
702778647172
702778647172
702778647172
702778647173
702778647173
702778647173
702778647174
702778647174
702778647174
702778647175
702778647175
702778647175
702778647176
702778647176
702778647176
702778647177
702778647177
702778647177
702778647178
702778647178
702778647178
702778647179
702778647179
702778647179
702778647180
702778647180
702778647180
702778647181
702778647181
702778647181
702778647182
702778647182
702778647182
702778647183
702778647183
702778647183
702778647184
702778647184
702778647184
702778647185
702778647185
702778647185
702778647186
702778647186
702778647186
702778647187
702778647187
702778647187
702778647188
702778647188
702778647188
702778647189
702778647189
702778647189
702778647190
702778647190
702778647190
702778647191
702778647191
702778647191
702778647192
702778647192
702778647192
702778647193
702778647193
702778647193
702778647194
702778647194
702778647194
702778647195
702778647195
702778647195
702778647196
702778647196
702778647196
702778647197
702778647197
702778647197
702778647198
702778647198
702778647198
702778647199
702778647199
702778647199
702778647200
702778647200
702778647200
702778647201
702778647201
702778647201
702778647202
702778647202
702778647202
702778647203
702778647203
702778647203
702778647204
702778647204
702778647204
702778647205
702778647205
702778647205
702778647206
702778647206
702778647206
702778647207
702778647207
702778647207
702778647208
702778647208
702778647208
702778647209
702778647209
702778647209
702778647210
702778647210
702778647210
702778647211
702778647211
702778647211
702778647212
702778647212
702778647212
702778647212
702778647213
702778647213
702778647213
702778647214
702778647214
702778647214
702778647215
702778647215
702778647215
702778647216
702778647216
702778647216
702778647217
702778647217
702778647217
702778647218
702778647218
702778647218
702778647219
702778647219
702778647219
702778647220
702778647220
702778647220
702778647221
702778647221
702778647221
702778647222
702778647222
702778647222
702778647223
702778647223
702778647223
702778647224
702778647224
702778647224
702778647225
702778647225
702778647225
702778647226
702778647226
702778647226
702778647227
702778647227
702778647227
702778647228
702778647228
702778647228
702778647229
702778647229
702778647229
702778647230
702778647230
702778647230
702778647231
702778647231
702778647231
702778647232
702778647232
702778647232
702778647233
702778647233
702778647233
702778647234
702778647234
702778647234
702778647235
702778647235
702778647235
702778647236
702778647236
702778647236
702778647237
702778647237
702778647237
702778647238
702778647238
702778647238
702778647239
702778647239
702778647239
702778647240
702778647240
702778647240
702778647241
702778647241
702778647241
702778647242
702778647242
702778647242
702778647243
702778647243
702778647243
702778647244
702778647244
702778647244
702778647245
702778647245
702778647245
702778647246
702778647246
702778647246
702778647247
702778647247
702778647247
702778647248
702778647248
702778647248
702778647249
702778647249
702778647249
702778647250
702778647250
702778647250
702778647251
702778647251
702778647251
702778647252
702778647252
702778647252
702778647253
702778647253
702778647253
702778647254
702778647254
702778647254
702778647255
702778647255
702778647255
702778647256
702778647256
702778647256
702778647256
702778647257
702778647257
702778647257
702778647258
702778647258
702778647258
702778647259
702778647259
702778647259
702778647260
702778647260
702778647260
702778647261
702778647261
702778647261
702778647262
702778647262
702778647262
702778647263
702778647263
702778647263
702778647264
702778647264
702778647264
702778647265
702778647265
702778647265
702778647266
702778647266
702778647266
702778647267
702778647267
702778647267
702778647268
702778647268
702778647268
702778647269
702778647269
702778647269
702778647270
702778647270
702778647270
702778647271
702778647271
702778647271
702778647272
702778647272
702778647272
702778647273
702778647273
702778647273
702778647274
702778647274
702778647274
702778647275
702778647275
702778647275
702778647276
702778647276
702778647276
702778647277
702778647277
702778647277
702778647278
702778647278
702778647278
702778647279
702778647279
702778647279
702778647280
702778647280
702778647280
702778647281
702778647281
702778647281
702778647282
702778647282
702778647282
702778647283
702778647283
702778647283
702778647284
702778647284
702778647284
702778647285
702778647285
702778647285
702778647286
702778647286
702778647286
702778647287
702778647287
702778647287
702778647288
702778647288
702778647288
702778647289
702778647289
702778647289
702778647290
702778647290
702778647290
702778647291
702778647291
702778647291
702778647292
702778647292
702778647292
702778647293
702778647293
702778647293
702778647294
702778647294
702778647294
702778647295
702778647295
702778647295
702778647296
702778647296
702778647296
702778647297
702778647297
702778647297
702778647298
702778647298
702778647298
702778647299
702778647299
702778647299
702778647300
702778647300
702778647300
702778647300
702778647301
702778647301
702778647301
702778647302
702778647302
702778647302
702778647303
702778647303
702778647303
702778647304
702778647304
702778647304
702778647305
702778647305
702778647305
702778647306
702778647306
702778647306
702778647307
702778647307
702778647307
702778647308
702778647308
702778647308
702778647309
702778647309
702778647309
702778647310
702778647310
702778647310
702778647311
702778647311
702778647311
702778647312
702778647312
702778647312
702778647313
702778647313
702778647313
702778647314
702778647314
702778647314
702778647315
702778647315
702778647315
702778647316
702778647316
702778647316
702778647317
702778647317
702778647317
702778647318
702778647318
702778647318
702778647319
702778647319
702778647319
702778647320
702778647320
702778647320
702778647321
702778647321
702778647321
702778647322
702778647322
702778647322
702778647323
702778647323
702778647323
702778647324
702778647324
702778647324
702778647325
702778647325
702778647325
702778647326
702778647326
702778647326
702778647327
702778647327
702778647327
702778647328
702778647328
702778647328
702778647329
702778647329
702778647329
702778647330
702778647330
702778647330
702778647331
702778647331
702778647331
702778647332
702778647332
702778647332
702778647333
702778647333
702778647333
702778647334
702778647334
702778647334
702778647335
702778647335
702778647335
702778647336
702778647336
702778647336
702778647337
702778647337
702778647337
702778647338
702778647338
702778647338
702778647339
702778647339
702778647339
702778647340
702778647340
702778647340
702778647341
702778647341
702778647341
702778647342
702778647342
702778647342
702778647343
702778647343
702778647343
702778647344
702778647344
702778647344
702778647344
702778647345
702778647345
702778647345
702778647346
702778647346
702778647346
702778647347
702778647347
702778647347
702778647348
702778647348
702778647348
702778647349
702778647349
702778647349
702778647350
702778647350
702778647350
702778647351
702778647351
702778647351
702778647352
702778647352
702778647352
702778647353
702778647353
702778647353
702778647354
702778647354
702778647354
702778647355
702778647355
702778647355
702778647356
702778647356
702778647356
702778647357
702778647357
702778647357
702778647358
702778647358
702778647358
702778647359
702778647359
702778647359
702778647360
702778647360
702778647360
702778647361
702778647361
702778647361
702778647362
702778647362
702778647362
702778647363
702778647363
702778647363
702778647364
702778647364
702778647364
702778647365
702778647365
702778647365
702778647366
702778647366
702778647366
702778647367
702778647367
702778647367
702778647368
702778647368
702778647368
702778647369
702778647369
702778647369
702778647370
702778647370
702778647370
702778647371
702778647371
702778647371
702778647372
702778647372
702778647372
702778647373
702778647373
702778647373
702778647374
702778647374
702778647374
702778647375
702778647375
702778647375
702778647376
702778647376
702778647376
702778647377
702778647377
702778647377
702778647378
702778647378
702778647378
702778647379
702778647379
702778647379
702778647380
702778647380
702778647380
702778647381
702778647381
702778647381
702778647382
702778647382
702778647382
702778647383
702778647383
702778647383
702778647384
702778647384
702778647384
702778647385
702778647385
702778647385
702778647386
702778647386
702778647386
702778647387
702778647387
702778647387
702778647388
702778647388
702778647388
702778647388
702778647389
702778647389
702778647389
702778647390
702778647390
702778647390
702778647391
702778647391
702778647391
702778647392
702778647392
702778647392
702778647393
702778647393
702778647393
702778647394
702778647394
702778647394
702778647395
702778647395
702778647395
702778647396
702778647396
702778647396
702778647397
702778647397
702778647397
702778647398
702778647398
702778647398
702778647399
702778647399
702778647399
702778647400
702778647400
702778647400
702778647401
702778647401
702778647401
702778647402
702778647402
702778647402
702778647403
702778647403
702778647403
702778647404
702778647404
702778647404
702778647405
702778647405
702778647405
702778647406
702778647406
702778647406
702778647407
702778647407
702778647407
702778647408
702778647408
702778647408
702778647409
702778647409
702778647409
702778647410
702778647410
702778647410
702778647411
702778647411
702778647411
702778647412
702778647412
702778647412
702778647413
702778647413
702778647413
702778647414
702778647414
702778647414
702778647415
702778647415
702778647415
702778647416
702778647416
702778647416
702778647417
702778647417
702778647417
702778647418
702778647418
702778647418
702778647419
702778647419
702778647419
702778647420
702778647420
702778647420
702778647421
702778647421
702778647421
702778647422
702778647422
702778647422
702778647423
702778647423
702778647423
702778647424
702778647424
702778647424
702778647425
702778647425
702778647425
702778647426
702778647426
702778647426
702778647427
702778647427
702778647427
702778647428
702778647428
702778647428
702778647429
702778647429
702778647429
702778647430
702778647430
702778647430
702778647431
702778647431
702778647431
702778647432
702778647432
702778647432
702778647432
702778647433
702778647433
702778647433
702778647434
702778647434
702778647434
702778647435
702778647435
702778647435
702778647436
702778647436
702778647436
702778647437
702778647437
702778647437
702778647438
702778647438
702778647438
702778647439
702778647439
702778647439
702778647440
702778647440
702778647440
702778647441
702778647441
702778647441
702778647442
702778647442
702778647442
702778647443
702778647443
702778647443
702778647444
702778647444
702778647444
702778647445
702778647445
702778647445
702778647446
702778647446
702778647446
702778647447
702778647447
702778647447
702778647448
702778647448
702778647448
702778647449
702778647449
702778647449
702778647450
702778647450
702778647450
702778647451
702778647451
702778647451
702778647452
702778647452
702778647452
702778647453
702778647453
702778647453
702778647454
702778647454
702778647454
702778647455
702778647455
702778647455
702778647456
702778647456
702778647456
702778647457
702778647457
702778647457
702778647458
702778647458
702778647458
702778647459
702778647459
702778647459
702778647460
702778647460
702778647460
702778647461
702778647461
702778647461
702778647462
702778647462
702778647462
702778647463
702778647463
702778647463
702778647464
702778647464
702778647464
702778647465
702778647465
702778647465
702778647466
702778647466
702778647466
702778647467
702778647467
702778647467
702778647468
702778647468
702778647468
702778647469
702778647469
702778647469
702778647470
702778647470
702778647470
702778647471
702778647471
702778647471
702778647472
702778647472
702778647472
702778647473
702778647473
702778647473
702778647474
702778647474
702778647474
702778647475
702778647475
702778647475
702778647476
702778647476
702778647476
702778647476
702778647477
702778647477
702778647477
702778647478
702778647478
702778647478
702778647479
702778647479
702778647479
702778647480
702778647480
702778647480
702778647481
702778647481
702778647481
702778647482
702778647482
702778647482
702778647483
702778647483
702778647483
702778647484
702778647484
702778647484
702778647485
702778647485
702778647485
702778647486
702778647486
702778647486
702778647487
702778647487
702778647487
702778647488
702778647488
702778647488
702778647489
702778647489
702778647489
702778647490
702778647490
702778647490
702778647491
702778647491
702778647491
702778647492
702778647492
702778647492
702778647493
702778647493
702778647493
702778647494
702778647494
702778647494
702778647495
702778647495
702778647495
702778647496
702778647496
702778647496
702778647497
702778647497
702778647497
702778647498
702778647498
702778647498
702778647499
702778647499
702778647499
702778647500
702778647500
702778647500
702778647501
702778647501
702778647501
702778647502
702778647502
702778647502
702778647503
702778647503
702778647503
702778647504
702778647504
702778647504
702778647505
702778647505
702778647505
702778647506
702778647506
702778647506
702778647507
702778647507
702778647507
702778647508
702778647508
702778647508
702778647509
702778647509
702778647509
702778647510
702778647510
702778647510
702778647511
702778647511
702778647511
702778647512
702778647512
702778647512
702778647513
702778647513
702778647513
702778647514
702778647514
702778647514
702778647515
702778647515
702778647515
702778647516
702778647516
702778647516
702778647517
702778647517
702778647517
702778647518
702778647518
702778647518
702778647519
702778647519
702778647519
702778647520
702778647520
702778647520
702778647520
702778647521
702778647521
702778647521
702778647522
702778647522
702778647522
702778647523
702778647523
702778647523
702778647524
702778647524
702778647524
702778647525
702778647525
702778647525
702778647526
702778647526
702778647526
702778647527
702778647527
702778647527
702778647528
702778647528
702778647528
702778647529
702778647529
702778647529
702778647530
702778647530
702778647530
702778647531
702778647531
702778647531
702778647532
702778647532
702778647532
702778647533
702778647533
702778647533
702778647534
702778647534
702778647534
702778647535
702778647535
702778647535
702778647536
702778647536
702778647536
702778647537
702778647537
702778647537
702778647538
702778647538
702778647538
702778647539
702778647539
702778647539
702778647540
702778647540
702778647540
702778647541
702778647541
702778647541
702778647542
702778647542
702778647542
702778647543
702778647543
702778647543
702778647544
702778647544
702778647544
702778647545
702778647545
702778647545
702778647546
702778647546
702778647546
702778647547
702778647547
702778647547
702778647548
702778647548
702778647548
702778647549
702778647549
702778647549
702778647550
702778647550
702778647550
702778647551
702778647551
702778647551
702778647552
702778647552
702778647552
702778647553
702778647553
702778647553
702778647554
702778647554
702778647554
702778647555
702778647555
702778647555
702778647556
702778647556
702778647556
702778647557
702778647557
702778647557
702778647558
702778647558
702778647558
702778647559
702778647559
702778647559
702778647560
702778647560
702778647560
702778647561
702778647561
702778647561
702778647562
702778647562
702778647562
702778647563
702778647563
702778647563
702778647564
702778647564
702778647564
702778647564
702778647565
702778647565
702778647565
702778647566
702778647566
702778647566
702778647567
702778647567
702778647567
702778647568
702778647568
702778647568
702778647569
702778647569
702778647569
702778647570
702778647570
702778647570
702778647571
702778647571
702778647571
702778647572
702778647572
702778647572
702778647573
702778647573
702778647573
702778647574
702778647574
702778647574
702778647575
702778647575
702778647575
702778647576
702778647576
702778647576
702778647577
702778647577
702778647577
702778647578
702778647578
702778647578
702778647579
702778647579
702778647579
702778647580
702778647580
702778647580
702778647581
702778647581
702778647581
702778647582
702778647582
702778647582
702778647583
702778647583
702778647583
702778647584
702778647584
702778647584
702778647585
702778647585
702778647585
702778647586
702778647586
702778647586
702778647587
702778647587
702778647587
702778647588
702778647588
702778647588
702778647589
702778647589
702778647589
702778647590
702778647590
702778647590
702778647591
702778647591
702778647591
702778647592
702778647592
702778647592
702778647593
702778647593
702778647593
702778647594
702778647594
702778647594
702778647595
702778647595
702778647595
702778647596
702778647596
702778647596
702778647597
702778647597
702778647597
702778647598
702778647598
702778647598
702778647599
702778647599
702778647599
702778647600
702778647600
702778647600
702778647601
702778647601
702778647601
702778647602
702778647602
702778647602
702778647603
702778647603
702778647603
702778647604
702778647604
702778647604
702778647605
702778647605
702778647605
702778647606
702778647606
702778647606
702778647607
702778647607
702778647607
702778647608
702778647608
702778647608
702778647608
702778647609
702778647609
702778647609
702778647610
702778647610
702778647610
702778647611
702778647611
702778647611
702778647612
702778647612
702778647612
702778647613
702778647613
702778647613
702778647614
702778647614
702778647614
702778647615
702778647615
702778647615
702778647616
702778647616
702778647616
702778647617
702778647617
702778647617
702778647618
702778647618
702778647618
702778647619
702778647619
702778647619
702778647620
702778647620
702778647620
702778647621
702778647621
702778647621
702778647622
702778647622
702778647622
702778647623
702778647623
702778647623
702778647624
702778647624
702778647624
702778647625
702778647625
702778647625
702778647626
702778647626
702778647626
702778647627
702778647627
702778647627
702778647628
702778647628
702778647628
702778647629
702778647629
702778647629
702778647630
702778647630
702778647630
702778647631
702778647631
702778647631
702778647632
702778647632
702778647632
702778647633
702778647633
702778647633
702778647634
702778647634
702778647634
702778647635
702778647635
702778647635
702778647636
702778647636
702778647636
702778647637
702778647637
702778647637
702778647638
702778647638
702778647638
702778647639
702778647639
702778647639
702778647640
702778647640
702778647640
702778647641
702778647641
702778647641
702778647642
702778647642
702778647642
702778647643
702778647643
702778647643
702778647644
702778647644
702778647644
702778647645
702778647645
702778647645
702778647646
702778647646
702778647646
702778647647
702778647647
702778647647
702778647648
702778647648
702778647648
702778647649
702778647649
702778647649
702778647650
702778647650
702778647650
702778647651
702778647651
702778647651
702778647652
702778647652
702778647652
702778647652
702778647653
702778647653
702778647653
702778647654
702778647654
702778647654
702778647655
702778647655
702778647655
702778647656
702778647656
702778647656
702778647657
702778647657
702778647657
702778647658
702778647658
702778647658
702778647659
702778647659
702778647659
702778647660
702778647660
702778647660
702778647661
702778647661
702778647661
702778647662
702778647662
702778647662
702778647663
702778647663
702778647663
702778647664
702778647664
702778647664
702778647665
702778647665
702778647665
702778647666
702778647666
702778647666
702778647667
702778647667
702778647667
702778647668
702778647668
702778647668
702778647669
702778647669
702778647669
702778647670
702778647670
702778647670
702778647671
702778647671
702778647671
702778647672
702778647672
702778647672
702778647673
702778647673
702778647673
702778647674
702778647674
702778647674
702778647675
702778647675
702778647675
702778647676
702778647676
702778647676
702778647677
702778647677
702778647677
702778647678
702778647678
702778647678
702778647679
702778647679
702778647679
702778647680
702778647680
702778647680
702778647681
702778647681
702778647681
702778647682
702778647682
702778647682
702778647683
702778647683
702778647683
702778647684
702778647684
702778647684
702778647685
702778647685
702778647685
702778647686
702778647686
702778647686
702778647687
702778647687
702778647687
702778647688
702778647688
702778647688
702778647689
702778647689
702778647689
702778647690
702778647690
702778647690
702778647691
702778647691
702778647691
702778647692
702778647692
702778647692
702778647693
702778647693
702778647693
702778647694
702778647694
702778647694
702778647695
702778647695
702778647695
702778647696
702778647696
702778647696
702778647696
702778647697
702778647697
702778647697
702778647698
702778647698
702778647698
702778647699
702778647699
702778647699
702778647700
702778647700
702778647700
702778647701
702778647701
702778647701
702778647702
702778647702
702778647702
702778647703
702778647703
702778647703
702778647704
702778647704
702778647704
702778647705
702778647705
702778647705
702778647706
702778647706
702778647706
702778647707
702778647707
702778647707
702778647708
702778647708
702778647708
702778647709
702778647709
702778647709
702778647710
702778647710
702778647710
702778647711
702778647711
702778647711
702778647712
702778647712
702778647712
702778647713
702778647713
702778647713
702778647714
702778647714
702778647714
702778647715
702778647715
702778647715
702778647716
702778647716
702778647716
702778647717
702778647717
702778647717
702778647718
702778647718
702778647718
702778647719
702778647719
702778647719
702778647720
702778647720
702778647720
702778647721
702778647721
702778647721
702778647722
702778647722
702778647722
702778647723
702778647723
702778647723
702778647724
702778647724
702778647724
702778647725
702778647725
702778647725
702778647726
702778647726
702778647726
702778647727
702778647727
702778647727
702778647728
702778647728
702778647728
702778647729
702778647729
702778647729
702778647730
702778647730
702778647730
702778647731
702778647731
702778647731
702778647732
702778647732
702778647732
702778647733
702778647733
702778647733
702778647734
702778647734
702778647734
702778647735
702778647735
702778647735
702778647736
702778647736
702778647736
702778647737
702778647737
702778647737
702778647738
702778647738
702778647738
702778647739
702778647739
702778647739
702778647740
702778647740
702778647740
702778647740
702778647741
702778647741
702778647741
702778647742
702778647742
702778647742
702778647743
702778647743
702778647743
702778647744
702778647744
702778647744
702778647745
702778647745
702778647745
702778647746
702778647746
702778647746
702778647747
702778647747
702778647747
702778647748
702778647748
702778647748
702778647749
702778647749
702778647749
702778647750
702778647750
702778647750
702778647751
702778647751
702778647751
702778647752
702778647752
702778647752
702778647753
702778647753
702778647753
702778647754
702778647754
702778647754
702778647755
702778647755
702778647755
702778647756
702778647756
702778647756
702778647757
702778647757
702778647757
702778647758
702778647758
702778647758
702778647759
702778647759
702778647759
702778647760
702778647760
702778647760
702778647761
702778647761
702778647761
702778647762
702778647762
702778647762
702778647763
702778647763
702778647763
702778647764
702778647764
702778647764
702778647765
702778647765
702778647765
702778647766
702778647766
702778647766
702778647767
702778647767
702778647767
702778647768
702778647768
702778647768
702778647769
702778647769
702778647769
702778647770
702778647770
702778647770
702778647771
702778647771
702778647771
702778647772
702778647772
702778647772
702778647773
702778647773
702778647773
702778647774
702778647774
702778647774
702778647775
702778647775
702778647775
702778647776
702778647776
702778647776
702778647777
702778647777
702778647777
702778647778
702778647778
702778647778
702778647779
702778647779
702778647779
702778647780
702778647780
702778647780
702778647781
702778647781
702778647781
702778647782
702778647782
702778647782
702778647783
702778647783
702778647783
702778647784
702778647784
702778647784
702778647784
702778647785
702778647785
702778647785
702778647786
702778647786
702778647786
702778647787
702778647787
702778647787
702778647788
702778647788
702778647788
702778647789
702778647789
702778647789
702778647790
702778647790
702778647790
702778647791
702778647791
702778647791
702778647792
702778647792
702778647792
702778647793
702778647793
702778647793
702778647794
702778647794
702778647794
702778647795
702778647795
702778647795
702778647796
702778647796
702778647796
702778647797
702778647797
702778647797
702778647798
702778647798
702778647798
702778647799
702778647799
702778647799
702778647800
702778647800
702778647800
702778647801
702778647801
702778647801
702778647802
702778647802
702778647802
702778647803
702778647803
702778647803
702778647804
702778647804
702778647804
702778647805
702778647805
702778647805
702778647806
702778647806
702778647806
702778647807
702778647807
702778647807
702778647808
702778647808
702778647808
702778647809
702778647809
702778647809
702778647810
702778647810
702778647810
702778647811
702778647811
702778647811
702778647812
702778647812
702778647812
702778647813
702778647813
702778647813
702778647814
702778647814
702778647814
702778647815
702778647815
702778647815
702778647816
702778647816
702778647816
702778647817
702778647817
702778647817
702778647818
702778647818
702778647818
702778647819
702778647819
702778647819
702778647820
702778647820
702778647820
702778647821
702778647821
702778647821
702778647822
702778647822
702778647822
702778647823
702778647823
702778647823
702778647824
702778647824
702778647824
702778647825
702778647825
702778647825
702778647826
702778647826
702778647826
702778647827
702778647827
702778647827
702778647828
702778647828
702778647828
702778647828
702778647829
702778647829
702778647829
702778647830
702778647830
702778647830
702778647831
702778647831
702778647831
702778647832
702778647832
702778647832
702778647833
702778647833
702778647833
702778647834
702778647834
702778647834
702778647835
702778647835
702778647835
702778647836
702778647836
702778647836
702778647837
702778647837
702778647837
702778647838
702778647838
702778647838
702778647839
702778647839
702778647839
702778647840
702778647840
702778647840
702778647841
702778647841
702778647841
702778647842
702778647842
702778647842
702778647843
702778647843
702778647843
702778647844
702778647844
702778647844
702778647845
702778647845
702778647845
702778647846
702778647846
702778647846
702778647847
702778647847
702778647847
702778647848
702778647848
702778647848
702778647849
702778647849
702778647849
702778647850
702778647850
702778647850
702778647851
702778647851
702778647851
702778647852
702778647852
702778647852
702778647853
702778647853
702778647853
702778647854
702778647854
702778647854
702778647855
702778647855
702778647855
702778647856
702778647856
702778647856
702778647857
702778647857
702778647857
702778647858
702778647858
702778647858
702778647859
702778647859
702778647859
702778647860
702778647860
702778647860
702778647861
702778647861
702778647861
702778647862
702778647862
702778647862
702778647863
702778647863
702778647863
702778647864
702778647864
702778647864
702778647865
702778647865
702778647865
702778647866
702778647866
702778647866
702778647867
702778647867
702778647867
702778647868
702778647868
702778647868
702778647869
702778647869
702778647869
702778647870
702778647870
702778647870
702778647871
702778647871
702778647871
702778647872
702778647872
702778647872
702778647873
702778647873
702778647873
702778647874
702778647874
702778647874
702778647875
702778647875
702778647875
702778647876
702778647876
702778647876
702778647877
702778647877
702778647877
702778647878
702778647878
702778647878
702778647879
702778647879
702778647879
702778647880
702778647880
702778647880
702778647881
702778647881
702778647881
702778647882
702778647882
702778647882
702778647883
702778647883
702778647883
702778647884
702778647884
702778647884
702778647885
702778647885
702778647885
702778647886
702778647886
702778647886
702778647887
702778647887
702778647887
702778647888
702778647888
702778647888
702778647889
702778647889
702778647889
702778647890
702778647890
702778647890
702778647891
702778647891
702778647891
702778647892
702778647892
702778647892
702778647893
702778647893
702778647893
702778647894
702778647894
702778647894
702778647895
702778647895
702778647895
702778647896
702778647896
702778647896
702778647897
702778647897
702778647897
702778647898
702778647898
702778647898
702778647899
702778647899
702778647899
702778647900
702778647900
702778647900
702778647901
702778647901
702778647901
702778647902
702778647902
702778647902
702778647903
702778647903
702778647903
702778647904
702778647904
702778647904
702778647905
702778647905
702778647905
702778647906
702778647906
702778647906
702778647907
702778647907
702778647907
702778647908
702778647908
702778647908
702778647909
702778647909
702778647909
702778647910
702778647910
702778647910
702778647911
702778647911
702778647911
702778647912
702778647912
702778647912
702778647913
702778647913
702778647913
702778647914
702778647914
702778647914
702778647915
702778647915
702778647915
702778647916
702778647916
702778647916
702778647916
702778647917
702778647917
702778647917
702778647918
702778647918
702778647918
702778647919
702778647919
702778647919
702778647920
702778647920
702778647920
702778647921
702778647921
702778647921
702778647922
702778647922
702778647922
702778647923
702778647923
702778647923
702778647924
702778647924
702778647924
702778647925
702778647925
702778647925
702778647926
702778647926
702778647926
702778647927
702778647927
702778647927
702778647928
702778647928
702778647928
702778647929
702778647929
702778647929
702778647930
702778647930
702778647930
702778647931
702778647931
702778647931
702778647932
702778647932
702778647932
702778647933
702778647933
702778647933
702778647934
702778647934
702778647934
702778647935
702778647935
702778647935
702778647936
702778647936
702778647936
702778647937
702778647937
702778647937
702778647938
702778647938
702778647938
702778647939
702778647939
702778647939
702778647940
702778647940
702778647940
702778647941
702778647941
702778647941
702778647942
702778647942
702778647942
702778647943
702778647943
702778647943
702778647944
702778647944
702778647944
702778647945
702778647945
702778647945
702778647946
702778647946
702778647946
702778647947
702778647947
702778647947
702778647948
702778647948
702778647948
702778647949
702778647949
702778647949
702778647950
702778647950
702778647950
702778647951
702778647951
702778647951
702778647952
702778647952
702778647952
702778647953
702778647953
702778647953
702778647954
702778647954
702778647954
702778647955
702778647955
702778647955
702778647956
702778647956
702778647956
702778647957
702778647957
702778647957
702778647958
702778647958
702778647958
702778647959
702778647959
702778647959
702778647960
702778647960
702778647960
702778647960
702778647961
702778647961
702778647961
702778647962
702778647962
702778647962
702778647963
702778647963
702778647963
702778647964
702778647964
702778647964
702778647965
702778647965
702778647965
702778647966
702778647966
702778647966
702778647967
702778647967
702778647967
702778647968
702778647968
702778647968
702778647969
702778647969
702778647969
702778647970
702778647970
702778647970
702778647971
702778647971
702778647971
702778647972
702778647972
702778647972
702778647973
702778647973
702778647973
702778647974
702778647974
702778647974
702778647975
702778647975
702778647975
702778647976
702778647976
702778647976
702778647977
702778647977
702778647977
702778647978
702778647978
702778647978
702778647979
702778647979
702778647979
702778647980
702778647980
702778647980
702778647981
702778647981
702778647981
702778647982
702778647982
702778647982
702778647983
702778647983
702778647983
702778647984
702778647984
702778647984
702778647985
702778647985
702778647985
702778647986
702778647986
702778647986
702778647987
702778647987
702778647987
702778647988
702778647988
702778647988
702778647989
702778647989
702778647989
702778647990
702778647990
702778647990
702778647991
702778647991
702778647991
702778647992
702778647992
702778647992
702778647993
702778647993
702778647993
702778647994
702778647994
702778647994
702778647995
702778647995
702778647995
702778647996
702778647996
702778647996
702778647997
702778647997
702778647997
702778647998
702778647998
702778647998
702778647999
702778647999
702778647999
702778648000
702778648000
702778648000
702778648001
702778648001
702778648001
702778648002
702778648002
702778648002
702778648003
702778648003
702778648003
702778648004
702778648004
702778648004
702778648004
702778648005
702778648005
702778648005
702778648006
702778648006
702778648006
702778648007
702778648007
702778648007
702778648008
702778648008
702778648008
702778648009
702778648009
702778648009
702778648010
702778648010
702778648010
702778648011
702778648011
702778648011
702778648012
702778648012
702778648012
702778648013
702778648013
702778648013
702778648014
702778648014
702778648014
702778648015
702778648015
702778648015
702778648016
702778648016
702778648016
702778648017
702778648017
702778648017
702778648018
702778648018
702778648018
702778648019
702778648019
702778648019
702778648020
702778648020
702778648020
702778648021
702778648021
702778648021
702778648022
702778648022
702778648022
702778648023
702778648023
702778648023
702778648024
702778648024
702778648024
702778648025
702778648025
702778648025
702778648026
702778648026
702778648026
702778648027
702778648027
702778648027
702778648028
702778648028
702778648028
702778648029
702778648029
702778648029
702778648030
702778648030
702778648030
702778648031
702778648031
702778648031
702778648032
702778648032
702778648032
702778648033
702778648033
702778648033
702778648034
702778648034
702778648034
702778648035
702778648035
702778648035
702778648036
702778648036
702778648036
702778648037
702778648037
702778648037
702778648038
702778648038
702778648038
702778648039
702778648039
702778648039
702778648040
702778648040
702778648040
702778648041
702778648041
702778648041
702778648042
702778648042
702778648042
702778648043
702778648043
702778648043
702778648044
702778648044
702778648044
702778648045
702778648045
702778648045
702778648046
702778648046
702778648046
702778648047
702778648047
702778648047
702778648048
702778648048
702778648048
702778648048
702778648049
702778648049
702778648049
702778648050
702778648050
702778648050
702778648051
702778648051
702778648051
702778648052
702778648052
702778648052
702778648053
702778648053
702778648053
702778648054
702778648054
702778648054
702778648055
702778648055
702778648055
702778648056
702778648056
702778648056
702778648057
702778648057
702778648057
702778648058
702778648058
702778648058
702778648059
702778648059
702778648059
702778648060
702778648060
702778648060
702778648061
702778648061
702778648061
702778648062
702778648062
702778648062
702778648063
702778648063
702778648063
702778648064
702778648064
702778648064
702778648065
702778648065
702778648065
702778648066
702778648066
702778648066
702778648067
702778648067
702778648067
702778648068
702778648068
702778648068
702778648069
702778648069
702778648069
702778648070
702778648070
702778648070
702778648071
702778648071
702778648071
702778648072
702778648072
702778648072
702778648073
702778648073
702778648073
702778648074
702778648074
702778648074
702778648075
702778648075
702778648075
702778648076
702778648076
702778648076
702778648077
702778648077
702778648077
702778648078
702778648078
702778648078
702778648079
702778648079
702778648079
702778648080
702778648080
702778648080
702778648081
702778648081
702778648081
702778648082
702778648082
702778648082
702778648083
702778648083
702778648083
702778648084
702778648084
702778648084
702778648085
702778648085
702778648085
702778648086
702778648086
702778648086
702778648087
702778648087
702778648087
702778648088
702778648088
702778648088
702778648089
702778648089
702778648089
702778648090
702778648090
702778648090
702778648091
702778648091
702778648091
702778648092
702778648092
702778648092
702778648092
702778648093
702778648093
702778648093
702778648094
702778648094
702778648094
702778648095
702778648095
702778648095
702778648096
702778648096
702778648096
702778648097
702778648097
702778648097
702778648098
702778648098
702778648098
702778648099
702778648099
702778648099
702778648100
702778648100
702778648100
702778648101
702778648101
702778648101
702778648102
702778648102
702778648102
702778648103
702778648103
702778648103
702778648104
702778648104
702778648104
702778648105
702778648105
702778648105
702778648106
702778648106
702778648106
702778648107
702778648107
702778648107
702778648108
702778648108
702778648108
702778648109
702778648109
702778648109
702778648110
702778648110
702778648110
702778648111
702778648111
702778648111
702778648112
702778648112
702778648112
702778648113
702778648113
702778648113
702778648114
702778648114
702778648114
702778648115
702778648115
702778648115
702778648116
702778648116
702778648116
702778648117
702778648117
702778648117
702778648118
702778648118
702778648118
702778648119
702778648119
702778648119
702778648120
702778648120
702778648120
702778648121
702778648121
702778648121
702778648122
702778648122
702778648122
702778648123
702778648123
702778648123
702778648124
702778648124
702778648124
702778648125
702778648125
702778648125
702778648126
702778648126
702778648126
702778648127
702778648127
702778648127
702778648128
702778648128
702778648128
702778648129
702778648129
702778648129
702778648130
702778648130
702778648130
702778648131
702778648131
702778648131
702778648132
702778648132
702778648132
702778648133
702778648133
702778648133
702778648134
702778648134
702778648134
702778648135
702778648135
702778648135
702778648136
702778648136
702778648136
702778648136
702778648137
702778648137
702778648137
702778648138
702778648138
702778648138
702778648139
702778648139
702778648139
702778648140
702778648140
702778648140
702778648141
702778648141
702778648141
702778648142
702778648142
702778648142
702778648143
702778648143
702778648143
702778648144
702778648144
702778648144
702778648145
702778648145
702778648145
702778648146
702778648146
702778648146
702778648147
702778648147
702778648147
702778648148
702778648148
702778648148
702778648149
702778648149
702778648149
702778648150
702778648150
702778648150
702778648151
702778648151
702778648151
702778648152
702778648152
702778648152
702778648153
702778648153
702778648153
702778648154
702778648154
702778648154
702778648155
702778648155
702778648155
702778648156
702778648156
702778648156
702778648157
702778648157
702778648157
702778648158
702778648158
702778648158
702778648159
702778648159
702778648159
702778648160
702778648160
702778648160
702778648161
702778648161
702778648161
702778648162
702778648162
702778648162
702778648163
702778648163
702778648163
702778648164
702778648164
702778648164
702778648165
702778648165
702778648165
702778648166
702778648166
702778648166
702778648167
702778648167
702778648167
702778648168
702778648168
702778648168
702778648169
702778648169
702778648169
702778648170
702778648170
702778648170
702778648171
702778648171
702778648171
702778648172
702778648172
702778648172
702778648173
702778648173
702778648173
702778648174
702778648174
702778648174
702778648175
702778648175
702778648175
702778648176
702778648176
702778648176
702778648177
702778648177
702778648177
702778648178
702778648178
702778648178
702778648179
702778648179
702778648179
702778648180
702778648180
702778648180
702778648180
702778648181
702778648181
702778648181
702778648182
702778648182
702778648182
702778648183
702778648183
702778648183
702778648184
702778648184
702778648184
702778648185
702778648185
702778648185
702778648186
702778648186
702778648186
702778648187
702778648187
702778648187
702778648188
702778648188
702778648188
702778648189
702778648189
702778648189
702778648190
702778648190
702778648190
702778648191
702778648191
702778648191
702778648192
702778648192
702778648192
702778648193
702778648193
702778648193
702778648194
702778648194
702778648194
702778648195
702778648195
702778648195
702778648196
702778648196
702778648196
702778648197
702778648197
702778648197
702778648198
702778648198
702778648198
702778648199
702778648199
702778648199
702778648200
702778648200
702778648200
702778648201
702778648201
702778648201
702778648202
702778648202
702778648202
702778648203
702778648203
702778648203
702778648204
702778648204
702778648204
702778648205
702778648205
702778648205
702778648206
702778648206
702778648206
702778648207
702778648207
702778648207
702778648208
702778648208
702778648208
702778648209
702778648209
702778648209
702778648210
702778648210
702778648210
702778648211
702778648211
702778648211
702778648212
702778648212
702778648212
702778648213
702778648213
702778648213
702778648214
702778648214
702778648214
702778648215
702778648215
702778648215
702778648216
702778648216
702778648216
702778648217
702778648217
702778648217
702778648218
702778648218
702778648218
702778648219
702778648219
702778648219
702778648220
702778648220
702778648220
702778648221
702778648221
702778648221
702778648222
702778648222
702778648222
702778648223
702778648223
702778648223
702778648224
702778648224
702778648224
702778648224
702778648225
702778648225
702778648225
702778648226
702778648226
702778648226
702778648227
702778648227
702778648227
702778648228
702778648228
702778648228
702778648229
702778648229
702778648229
702778648230
702778648230
702778648230
702778648231
702778648231
702778648231
702778648232
702778648232
702778648232
702778648233
702778648233
702778648233
702778648234
702778648234
702778648234
702778648235
702778648235
702778648235
702778648236
702778648236
702778648236
702778648237
702778648237
702778648237
702778648238
702778648238
702778648238
702778648239
702778648239
702778648239
702778648240
702778648240
702778648240
702778648241
702778648241
702778648241
702778648242
702778648242
702778648242
702778648243
702778648243
702778648243
702778648244
702778648244
702778648244
702778648245
702778648245
702778648245
702778648246
702778648246
702778648246
702778648247
702778648247
702778648247
702778648248
702778648248
702778648248
702778648249
702778648249
702778648249
702778648250
702778648250
702778648250
702778648251
702778648251
702778648251
702778648252
702778648252
702778648252
702778648253
702778648253
702778648253
702778648254
702778648254
702778648254
702778648255
702778648255
702778648255
702778648256
702778648256
702778648256
702778648257
702778648257
702778648257
702778648258
702778648258
702778648258
702778648259
702778648259
702778648259
702778648260
702778648260
702778648260
702778648261
702778648261
702778648261
702778648262
702778648262
702778648262
702778648263
702778648263
702778648263
702778648264
702778648264
702778648264
702778648265
702778648265
702778648265
702778648266
702778648266
702778648266
702778648267
702778648267
702778648267
702778648268
702778648268
702778648268
702778648268
702778648269
702778648269
702778648269
702778648270
702778648270
702778648270
702778648271
702778648271
702778648271
702778648272
702778648272
702778648272
702778648273
702778648273
702778648273
702778648274
702778648274
702778648274
702778648275
702778648275
702778648275
702778648276
702778648276
702778648276
702778648277
702778648277
702778648277
702778648278
702778648278
702778648278
702778648279
702778648279
702778648279
702778648280
702778648280
702778648280
702778648281
702778648281
702778648281
702778648282
702778648282
702778648282
702778648283
702778648283
702778648283
702778648284
702778648284
702778648284
702778648285
702778648285
702778648285
702778648286
702778648286
702778648286
702778648287
702778648287
702778648287
702778648288
702778648288
702778648288
702778648289
702778648289
702778648289
702778648290
702778648290
702778648290
702778648291
702778648291
702778648291
702778648292
702778648292
702778648292
702778648293
702778648293
702778648293
702778648294
702778648294
702778648294
702778648295
702778648295
702778648295
702778648296
702778648296
702778648296
702778648297
702778648297
702778648297
702778648298
702778648298
702778648298
702778648299
702778648299
702778648299
702778648300
702778648300
702778648300
702778648301
702778648301
702778648301
702778648302
702778648302
702778648302
702778648303
702778648303
702778648303
702778648304
702778648304
702778648304
702778648305
702778648305
702778648305
702778648306
702778648306
702778648306
702778648307
702778648307
702778648307
702778648308
702778648308
702778648308
702778648309
702778648309
702778648309
702778648310
702778648310
702778648310
702778648311
702778648311
702778648311
702778648312
702778648312
702778648312
702778648312
702778648313
702778648313
702778648313
702778648314
702778648314
702778648314
702778648315
702778648315
702778648315
702778648316
702778648316
702778648316
702778648317
702778648317
702778648317
702778648318
702778648318
702778648318
702778648319
702778648319
702778648319
702778648320
702778648320
702778648320
702778648321
702778648321
702778648321
702778648322
702778648322
702778648322
702778648323
702778648323
702778648323
702778648324
702778648324
702778648324
702778648325
702778648325
702778648325
702778648326
702778648326
702778648326
702778648327
702778648327
702778648327
702778648328
702778648328
702778648328
702778648329
702778648329
702778648329
702778648330
702778648330
702778648330
702778648331
702778648331
702778648331
702778648332
702778648332
702778648332
702778648333
702778648333
702778648333
702778648334
702778648334
702778648334
702778648335
702778648335
702778648335
702778648336
702778648336
702778648336
702778648337
702778648337
702778648337
702778648338
702778648338
702778648338
702778648339
702778648339
702778648339
702778648340
702778648340
702778648340
702778648341
702778648341
702778648341
702778648342
702778648342
702778648342
702778648343
702778648343
702778648343
702778648344
702778648344
702778648344
702778648345
702778648345
702778648345
702778648346
702778648346
702778648346
702778648347
702778648347
702778648347
702778648348
702778648348
702778648348
702778648349
702778648349
702778648349
702778648350
702778648350
702778648350
702778648351
702778648351
702778648351
702778648352
702778648352
702778648352
702778648353
702778648353
702778648353
702778648354
702778648354
702778648354
702778648355
702778648355
702778648355
702778648356
702778648356
702778648356
702778648356
702778648357
702778648357
702778648357
702778648358
702778648358
702778648358
702778648359
702778648359
702778648359
702778648360
702778648360
702778648360
702778648361
702778648361
702778648361
702778648362
702778648362
702778648362
702778648363
702778648363
702778648363
702778648364
702778648364
702778648364
702778648365
702778648365
702778648365
702778648366
702778648366
702778648366
702778648367
702778648367
702778648367
702778648368
702778648368
702778648368
702778648369
702778648369
702778648369
702778648370
702778648370
702778648370
702778648371
702778648371
702778648371
702778648372
702778648372
702778648372
702778648373
702778648373
702778648373
702778648374
702778648374
702778648374
702778648375
702778648375
702778648375
702778648376
702778648376
702778648376
702778648377
702778648377
702778648377
702778648378
702778648378
702778648378
702778648379
702778648379
702778648379
702778648380
702778648380
702778648380
702778648381
702778648381
702778648381
702778648382
702778648382
702778648382
702778648383
702778648383
702778648383
702778648384
702778648384
702778648384
702778648385
702778648385
702778648385
702778648386
702778648386
702778648386
702778648387
702778648387
702778648387
702778648388
702778648388
702778648388
702778648389
702778648389
702778648389
702778648390
702778648390
702778648390
702778648391
702778648391
702778648391
702778648392
702778648392
702778648392
702778648393
702778648393
702778648393
702778648394
702778648394
702778648394
702778648395
702778648395
702778648395
702778648396
702778648396
702778648396
702778648397
702778648397
702778648397
702778648398
702778648398
702778648398
702778648399
702778648399
702778648399
702778648400
702778648400
702778648400
702778648400
702778648401
702778648401
702778648401
702778648402
702778648402
702778648402
702778648403
702778648403
702778648403
702778648404
702778648404
702778648404
702778648405
702778648405
702778648405
702778648406
702778648406
702778648406
702778648407
702778648407
702778648407
702778648408
702778648408
702778648408
702778648409
702778648409
702778648409
702778648410
702778648410
702778648410
702778648411
702778648411
702778648411
702778648412
702778648412
702778648412
702778648413
702778648413
702778648413
702778648414
702778648414
702778648414
702778648415
702778648415
702778648415
702778648416
702778648416
702778648416
702778648417
702778648417
702778648417
702778648418
702778648418
702778648418
702778648419
702778648419
702778648419
702778648420
702778648420
702778648420
702778648421
702778648421
702778648421
702778648422
702778648422
702778648422
702778648423
702778648423
702778648423
702778648424
702778648424
702778648424
702778648425
702778648425
702778648425
702778648426
702778648426
702778648426
702778648427
702778648427
702778648427
702778648428
702778648428
702778648428
702778648429
702778648429
702778648429
702778648430
702778648430
702778648430
702778648431
702778648431
702778648431
702778648432
702778648432
702778648432
702778648433
702778648433
702778648433
702778648434
702778648434
702778648434
702778648435
702778648435
702778648435
702778648436
702778648436
702778648436
702778648437
702778648437
702778648437
702778648438
702778648438
702778648438
702778648439
702778648439
702778648439
702778648440
702778648440
702778648440
702778648441
702778648441
702778648441
702778648442
702778648442
702778648442
702778648443
702778648443
702778648443
702778648444
702778648444
702778648444
702778648444
702778648445
702778648445
702778648445
702778648446
702778648446
702778648446
702778648447
702778648447
702778648447
702778648448
702778648448
702778648448
702778648449
702778648449
702778648449
702778648450
702778648450
702778648450
702778648451
702778648451
702778648451
702778648452
702778648452
702778648452
702778648453
702778648453
702778648453
702778648454
702778648454
702778648454
702778648455
702778648455
702778648455
702778648456
702778648456
702778648456
702778648457
702778648457
702778648457
702778648458
702778648458
702778648458
702778648459
702778648459
702778648459
702778648460
702778648460
702778648460
702778648461
702778648461
702778648461
702778648462
702778648462
702778648462
702778648463
702778648463
702778648463
702778648464
702778648464
702778648464
702778648465
702778648465
702778648465
702778648466
702778648466
702778648466
702778648467
702778648467
702778648467
702778648468
702778648468
702778648468
702778648469
702778648469
702778648469
702778648470
702778648470
702778648470
702778648471
702778648471
702778648471
702778648472
702778648472
702778648472
702778648473
702778648473
702778648473
702778648474
702778648474
702778648474
702778648475
702778648475
702778648475
702778648476
702778648476
702778648476
702778648477
702778648477
702778648477
702778648478
702778648478
702778648478
702778648479
702778648479
702778648479
702778648480
702778648480
702778648480
702778648481
702778648481
702778648481
702778648482
702778648482
702778648482
702778648483
702778648483
702778648483
702778648484
702778648484
702778648484
702778648485
702778648485
702778648485
702778648486
702778648486
702778648486
702778648487
702778648487
702778648487
702778648488
702778648488
702778648488
702778648488
702778648489
702778648489
702778648489
702778648490
702778648490
702778648490
702778648491
702778648491
702778648491
702778648492
702778648492
702778648492
702778648493
702778648493
702778648493
702778648494
702778648494
702778648494
702778648495
702778648495
702778648495
702778648496
702778648496
702778648496
702778648497
702778648497
702778648497
702778648498
702778648498
702778648498
702778648499
702778648499
702778648499
702778648500
702778648500
702778648500
702778648501
702778648501
702778648501
702778648502
702778648502
702778648502
702778648503
702778648503
702778648503
702778648504
702778648504
702778648504
702778648505
702778648505
702778648505
702778648506
702778648506
702778648506
702778648507
702778648507
702778648507
702778648508
702778648508
702778648508
702778648509
702778648509
702778648509
702778648510
702778648510
702778648510
702778648511
702778648511
702778648511
702778648512
702778648512
702778648512
702778648513
702778648513
702778648513
702778648514
702778648514
702778648514
702778648515
702778648515
702778648515
702778648516
702778648516
702778648516
702778648517
702778648517
702778648517
702778648518
702778648518
702778648518
702778648519
702778648519
702778648519
702778648520
702778648520
702778648520
702778648521
702778648521
702778648521
702778648522
702778648522
702778648522
702778648523
702778648523
702778648523
702778648524
702778648524
702778648524
702778648525
702778648525
702778648525
702778648526
702778648526
702778648526
702778648527
702778648527
702778648527
702778648528
702778648528
702778648528
702778648529
702778648529
702778648529
702778648530
702778648530
702778648530
702778648531
702778648531
702778648531
702778648532
702778648532
702778648532
702778648532
702778648533
702778648533
702778648533
702778648534
702778648534
702778648534
702778648535
702778648535
702778648535
702778648536
702778648536
702778648536
702778648537
702778648537
702778648537
702778648538
702778648538
702778648538
702778648539
702778648539
702778648539
702778648540
702778648540
702778648540
702778648541
702778648541
702778648541
702778648542
702778648542
702778648542
702778648543
702778648543
702778648543
702778648544
702778648544
702778648544
702778648545
702778648545
702778648545
702778648546
702778648546
702778648546
702778648547
702778648547
702778648547
702778648548
702778648548
702778648548
702778648549
702778648549
702778648549
702778648550
702778648550
702778648550
702778648551
702778648551
702778648551
702778648552
702778648552
702778648552
702778648553
702778648553
702778648553
702778648554
702778648554
702778648554
702778648555
702778648555
702778648555
702778648556
702778648556
702778648556
702778648557
702778648557
702778648557
702778648558
702778648558
702778648558
702778648559
702778648559
702778648559
702778648560
702778648560
702778648560
702778648561
702778648561
702778648561
702778648562
702778648562
702778648562
702778648563
702778648563
702778648563
702778648564
702778648564
702778648564
702778648565
702778648565
702778648565
702778648566
702778648566
702778648566
702778648567
702778648567
702778648567
702778648568
702778648568
702778648568
702778648569
702778648569
702778648569
702778648570
702778648570
702778648570
702778648571
702778648571
702778648571
702778648572
702778648572
702778648572
702778648573
702778648573
702778648573
702778648574
702778648574
702778648574
702778648575
702778648575
702778648575
702778648576
702778648576
702778648576
702778648577
702778648577
702778648577
702778648578
702778648578
702778648578
702778648579
702778648579
702778648579
702778648580
702778648580
702778648580
702778648581
702778648581
702778648581
702778648582
702778648582
702778648582
702778648583
702778648583
702778648583
702778648584
702778648584
702778648584
702778648585
702778648585
702778648585
702778648586
702778648586
702778648586
702778648587
702778648587
702778648587
702778648588
702778648588
702778648588
702778648589
702778648589
702778648589
702778648590
702778648590
702778648590
702778648591
702778648591
702778648591
702778648592
702778648592
702778648592
702778648593
702778648593
702778648593
702778648594
702778648594
702778648594
702778648595
702778648595
702778648595
702778648596
702778648596
702778648596
702778648597
702778648597
702778648597
702778648598
702778648598
702778648598
702778648599
702778648599
702778648599
702778648600
702778648600
702778648600
702778648601
702778648601
702778648601
702778648602
702778648602
702778648602
702778648603
702778648603
702778648603
702778648604
702778648604
702778648604
702778648605
702778648605
702778648605
702778648606
702778648606
702778648606
702778648607
702778648607
702778648607
702778648608
702778648608
702778648608
702778648609
702778648609
702778648609
702778648610
702778648610
702778648610
702778648611
702778648611
702778648611
702778648612
702778648612
702778648612
702778648613
702778648613
702778648613
702778648614
702778648614
702778648614
702778648615
702778648615
702778648615
702778648616
702778648616
702778648616
702778648617
702778648617
702778648617
702778648618
702778648618
702778648618
702778648619
702778648619
702778648619
702778648620
702778648620
702778648620
702778648620
702778648621
702778648621
702778648621
702778648622
702778648622
702778648622
702778648623
702778648623
702778648623
702778648624
702778648624
702778648624
702778648625
702778648625
702778648625
702778648626
702778648626
702778648626
702778648627
702778648627
702778648627
702778648628
702778648628
702778648628
702778648629
702778648629
702778648629
702778648630
702778648630
702778648630
702778648631
702778648631
702778648631
702778648632
702778648632
702778648632
702778648633
702778648633
702778648633
702778648634
702778648634
702778648634
702778648635
702778648635
702778648635
702778648636
702778648636
702778648636
702778648637
702778648637
702778648637
702778648638
702778648638
702778648638
702778648639
702778648639
702778648639
702778648640
702778648640
702778648640
702778648641
702778648641
702778648641
702778648642
702778648642
702778648642
702778648643
702778648643
702778648643
702778648644
702778648644
702778648644
702778648645
702778648645
702778648645
702778648646
702778648646
702778648646
702778648647
702778648647
702778648647
702778648648
702778648648
702778648648
702778648649
702778648649
702778648649
702778648650
702778648650
702778648650
702778648651
702778648651
702778648651
702778648652
702778648652
702778648652
702778648653
702778648653
702778648653
702778648654
702778648654
702778648654
702778648655
702778648655
702778648655
702778648656
702778648656
702778648656
702778648657
702778648657
702778648657
702778648658
702778648658
702778648658
702778648659
702778648659
702778648659
702778648660
702778648660
702778648660
702778648661
702778648661
702778648661
702778648662
702778648662
702778648662
702778648663
702778648663
702778648663
702778648664
702778648664
702778648664
702778648664
702778648665
702778648665
702778648665
702778648666
702778648666
702778648666
702778648667
702778648667
702778648667
702778648668
702778648668
702778648668
702778648669
702778648669
702778648669
702778648670
702778648670
702778648670
702778648671
702778648671
702778648671
702778648672
702778648672
702778648672
702778648673
702778648673
702778648673
702778648674
702778648674
702778648674
702778648675
702778648675
702778648675
702778648676
702778648676
702778648676
702778648677
702778648677
702778648677
702778648678
702778648678
702778648678
702778648679
702778648679
702778648679
702778648680
702778648680
702778648680
702778648681
702778648681
702778648681
702778648682
702778648682
702778648682
702778648683
702778648683
702778648683
702778648684
702778648684
702778648684
702778648685
702778648685
702778648685
702778648686
702778648686
702778648686
702778648687
702778648687
702778648687
702778648688
702778648688
702778648688
702778648689
702778648689
702778648689
702778648690
702778648690
702778648690
702778648691
702778648691
702778648691
702778648692
702778648692
702778648692
702778648693
702778648693
702778648693
702778648694
702778648694
702778648694
702778648695
702778648695
702778648695
702778648696
702778648696
702778648696
702778648697
702778648697
702778648697
702778648698
702778648698
702778648698
702778648699
702778648699
702778648699
702778648700
702778648700
702778648700
702778648701
702778648701
702778648701
702778648702
702778648702
702778648702
702778648703
702778648703
702778648703
702778648704
702778648704
702778648704
702778648705
702778648705
702778648705
702778648706
702778648706
702778648706
702778648707
702778648707
702778648707
702778648708
702778648708
702778648708
702778648708
702778648709
702778648709
702778648709
702778648710
702778648710
702778648710
702778648711
702778648711
702778648711
702778648712
702778648712
702778648712
702778648713
702778648713
702778648713
702778648714
702778648714
702778648714
702778648715
702778648715
702778648715
702778648716
702778648716
702778648716
702778648717
702778648717
702778648717
702778648718
702778648718
702778648718
702778648719
702778648719
702778648719
702778648720
702778648720
702778648720
702778648721
702778648721
702778648721
702778648722
702778648722
702778648722
702778648723
702778648723
702778648723
702778648724
702778648724
702778648724
702778648725
702778648725
702778648725
702778648726
702778648726
702778648726
702778648727
702778648727
702778648727
702778648728
702778648728
702778648728
702778648729
702778648729
702778648729
702778648730
702778648730
702778648730
702778648731
702778648731
702778648731
702778648732
702778648732
702778648732
702778648733
702778648733
702778648733
702778648734
702778648734
702778648734
702778648735
702778648735
702778648735
702778648736
702778648736
702778648736
702778648737
702778648737
702778648737
702778648738
702778648738
702778648738
702778648739
702778648739
702778648739
702778648740
702778648740
702778648740
702778648741
702778648741
702778648741
702778648742
702778648742
702778648742
702778648743
702778648743
702778648743
702778648744
702778648744
702778648744
702778648745
702778648745
702778648745
702778648746
702778648746
702778648746
702778648747
702778648747
702778648747
702778648748
702778648748
702778648748
702778648749
702778648749
702778648749
702778648750
702778648750
702778648750
702778648751
702778648751
702778648751
702778648752
702778648752
702778648752
702778648752
702778648753
702778648753
702778648753
702778648754
702778648754
702778648754
702778648755
702778648755
702778648755
702778648756
702778648756
702778648756
702778648757
702778648757
702778648757
702778648758
702778648758
702778648758
702778648759
702778648759
702778648759
702778648760
702778648760
702778648760
702778648761
702778648761
702778648761
702778648762
702778648762
702778648762
702778648763
702778648763
702778648763
702778648764
702778648764
702778648764
702778648765
702778648765
702778648765
702778648766
702778648766
702778648766
702778648767
702778648767
702778648767
702778648768
702778648768
702778648768
702778648769
702778648769
702778648769
702778648770
702778648770
702778648770
702778648771
702778648771
702778648771
702778648772
702778648772
702778648772
702778648773
702778648773
702778648773
702778648774
702778648774
702778648774
702778648775
702778648775
702778648775
702778648776
702778648776
702778648776
702778648777
702778648777
702778648777
702778648778
702778648778
702778648778
702778648779
702778648779
702778648779
702778648780
702778648780
702778648780
702778648781
702778648781
702778648781
702778648782
702778648782
702778648782
702778648783
702778648783
702778648783
702778648784
702778648784
702778648784
702778648785
702778648785
702778648785
702778648786
702778648786
702778648786
702778648787
702778648787
702778648787
702778648788
702778648788
702778648788
702778648789
702778648789
702778648789
702778648790
702778648790
702778648790
702778648791
702778648791
702778648791
702778648792
702778648792
702778648792
702778648793
702778648793
702778648793
702778648794
702778648794
702778648794
702778648795
702778648795
702778648795
702778648796
702778648796
702778648796
702778648796
702778648797
702778648797
702778648797
702778648798
702778648798
702778648798
702778648799
702778648799
702778648799
702778648800
702778648800
702778648800
702778648801
702778648801
702778648801
702778648802
702778648802
702778648802
702778648803
702778648803
702778648803
702778648804
702778648804
702778648804
702778648805
702778648805
702778648805
702778648806
702778648806
702778648806
702778648807
702778648807
702778648807
702778648808
702778648808
702778648808
702778648809
702778648809
702778648809
702778648810
702778648810
702778648810
702778648811
702778648811
702778648811
702778648812
702778648812
702778648812
702778648813
702778648813
702778648813
702778648814
702778648814
702778648814
702778648815
702778648815
702778648815
702778648816
702778648816
702778648816
702778648817
702778648817
702778648817
702778648818
702778648818
702778648818
702778648819
702778648819
702778648819
702778648820
702778648820
702778648820
702778648821
702778648821
702778648821
702778648822
702778648822
702778648822
702778648823
702778648823
702778648823
702778648824
702778648824
702778648824
702778648825
702778648825
702778648825
702778648826
702778648826
702778648826
702778648827
702778648827
702778648827
702778648828
702778648828
702778648828
702778648829
702778648829
702778648829
702778648830
702778648830
702778648830
702778648831
702778648831
702778648831
702778648832
702778648832
702778648832
702778648833
702778648833
702778648833
702778648834
702778648834
702778648834
702778648835
702778648835
702778648835
702778648836
702778648836
702778648836
702778648837
702778648837
702778648837
702778648838
702778648838
702778648838
702778648839
702778648839
702778648839
702778648840
702778648840
702778648840
702778648840
702778648841
702778648841
702778648841
702778648842
702778648842
702778648842
702778648843
702778648843
702778648843
702778648844
702778648844
702778648844
702778648845
702778648845
702778648845
702778648846
702778648846
702778648846
702778648847
702778648847
702778648847
702778648848
702778648848
702778648848
702778648849
702778648849
702778648849
702778648850
702778648850
702778648850
702778648851
702778648851
702778648851
702778648852
702778648852
702778648852
702778648853
702778648853
702778648853
702778648854
702778648854
702778648854
702778648855
702778648855
702778648855
702778648856
702778648856
702778648856
702778648857
702778648857
702778648857
702778648858
702778648858
702778648858
702778648859
702778648859
702778648859
702778648860
702778648860
702778648860
702778648861
702778648861
702778648861
702778648862
702778648862
702778648862
702778648863
702778648863
702778648863
702778648864
702778648864
702778648864
702778648865
702778648865
702778648865
702778648866
702778648866
702778648866
702778648867
702778648867
702778648867
702778648868
702778648868
702778648868
702778648869
702778648869
702778648869
702778648870
702778648870
702778648870
702778648871
702778648871
702778648871
702778648872
702778648872
702778648872
702778648873
702778648873
702778648873
702778648874
702778648874
702778648874
702778648875
702778648875
702778648875
702778648876
702778648876
702778648876
702778648877
702778648877
702778648877
702778648878
702778648878
702778648878
702778648879
702778648879
702778648879
702778648880
702778648880
702778648880
702778648881
702778648881
702778648881
702778648882
702778648882
702778648882
702778648883
702778648883
702778648883
702778648884
702778648884
702778648884
702778648884
702778648885
702778648885
702778648885
702778648886
702778648886
702778648886
702778648887
702778648887
702778648887
702778648888
702778648888
702778648888
702778648889
702778648889
702778648889
702778648890
702778648890
702778648890
702778648891
702778648891
702778648891
702778648892
702778648892
702778648892
702778648893
702778648893
702778648893
702778648894
702778648894
702778648894
702778648895
702778648895
702778648895
702778648896
702778648896
702778648896
702778648897
702778648897
702778648897
702778648898
702778648898
702778648898
702778648899
702778648899
702778648899
702778648900
702778648900
702778648900
702778648901
702778648901
702778648901
702778648902
702778648902
702778648902
702778648903
702778648903
702778648903
702778648904
702778648904
702778648904
702778648905
702778648905
702778648905
702778648906
702778648906
702778648906
702778648907
702778648907
702778648907
702778648908
702778648908
702778648908
702778648909
702778648909
702778648909
702778648910
702778648910
702778648910
702778648911
702778648911
702778648911
702778648912
702778648912
702778648912
702778648913
702778648913
702778648913
702778648914
702778648914
702778648914
702778648915
702778648915
702778648915
702778648916
702778648916
702778648916
702778648917
702778648917
702778648917
702778648918
702778648918
702778648918
702778648919
702778648919
702778648919
702778648920
702778648920
702778648920
702778648921
702778648921
702778648921
702778648922
702778648922
702778648922
702778648923
702778648923
702778648923
702778648924
702778648924
702778648924
702778648925
702778648925
702778648925
702778648926
702778648926
702778648926
702778648927
702778648927
702778648927
702778648928
[...]
251391433569
251391433575
251391433576
702778646875
251391433575
251391433575
2777491175988
702778646905
2777491175991
251391433816
251391433815
251391433815
251391433815
2777491175988
702778646905
251391433860
251391433861
702778646875
2777491175988
702778646905
251391433888
251391433889
251391433888
251391433888
2777491175988
702778646905
251391434004
251391434005
702778646875
2777491175988
702778646905
2777491175988
702778646905
251391434031
251391434032
702778646875
251391434072
251391434073
251391434072
251391434072
2777491175988
702778646905
251391434081
251391434082
251391434081
251391434081
2777491175988
702778646905
251391434212
251391434213
702778646875
2777491175988
702778646905
251391434278
251391434279
251391434278
251391434278
2777491175988
702778646905
251391434287
251391434288
702778646875
2777491175988
702778646905
2777491175988
702778646905
2777491175988
702778646905
251391434324
251391434334
251391434353
251391434325
251391434335
702778646875
251391434353
251391434353
2777491175988
702778646905
251391434372
251391434372
251391434372
2777491175988
702778646905
2777491175989
702778646905
2777491175989
702778646905
2777491175989
702778646905
251391434354
251391434535
251391434535
251391434710
702778646875
251391434711
251391434373
2777491175992
251391434505
251391434681
251391434504
251391434504
251391434504
251391434535
251391434536
251391434680
251391434680
251391434680
2777491175989
702778646905
251391434759
251391434760
702778646875
2777491175989
702778646905
2777491175989
702778646905
251391434763
251391434764
702778646875
251391434767
251391434768
251391434767
251391434767
2777491175989
702778646905
251391434772
251391434773
251391434772
251391434772
2777491175989
702778646905
2777491175989
702778646905
251391434836
251391434820
251391434837
702778646875
251391434819
251391434819
251391434819
2777491175989
702778646905
2777491175989
702778646905
251391434932
251391434933
702778646875
251391434883
251391434884
251391434883
251391434883
2777491175989
702778646905
2777491175989
702778646905
251391435045
702778646882
702778646883
251391435000
251391435001
251391435000
251391435022
251391435000
2777491175989
702778646905
2777491175989
702778646905
251391435133
251391435134
702778646875
251391435084
251391435085
251391435084
251391435084
2777491175989
702778646905
2777491175990
702778646905
2777491175990
702778646905
251391435147
251391435147
251391435147
251391435148
2777491175993
251391435178
251391435179
251391435178
251391435238
251391435178
251391435239
251391435238
251391435238
2777491175990
702778646905
251391435289
251391435290
702778646875
2777491175990
702778646905
2777491175990
702778646905
2777491175990
702778646905
2777491175990
702778646905
2777491175990
702778646905
2777491175990
702778646905
2777491175990
702778646905
251391435315
251391435316
251391435319
2777491175990
702778646905
251391435315
251391435319
251391435315
251391435319
251391435395
251391435395
251391435420
251391435396
251391435420
251391435428
702778646875
251391435421
251391435429
251391435320
251391435349
251391435350
251391435349
251391435349
251391435409
251391435395
251391435409
251391435398
251391435398
251391435399
251391435410
251391435398
251391435409
251391435420
2777491175990
702778646905
2777491175990
702778646905
251391435448
251391435449
251391435454
251391435448
251391435455
702778646875
251391435448
2777491175990
702778646905
251391435462
702778646875
2777491175990
702778646905
251391435480
251391435463
251391435479
251391435479
251391435479
2777491175990
702778646905
2777491175991
702778646905
251391435548
251391435549
251391435550
251391435548
702778646875
251391435548
2777491175991
702778646905
2777491175991
702778646905
251391435570
251391435573
251391435570
251391435574
702778646875
251391435570
2777491175991
702778646905
2777491175991
702778646905
2777491175994
251391435592
251391435593
702778646875
251391435571
251391435575
251391435576
251391435575
251391435575
2777491175991
702778646905
251391435623
251391435622
251391435622
251391435622
2777491175991
702778646905
251391435678
251391435672
702778646875
251391435677
251391435677
251391435677
2777491175991
702778646905
251391435712
251391435713
702778646875
2777491175991
702778646905
2777491175991
702778646905
251391435878
702778646875
251391435879
251391435986
251391435987
251391435986
251391435986
2777491175991
702778646905
251391436002
251391436001
251391436001
251391436001
2777491175991
702778646905
251391436105
251391436106
702778646875
2777491175991
702778646905
251391436123
251391436124
251391436123
251391436123
2777491175991
702778646905
251391436397
251391436398
702778646875
2777491175991
702778646905
2777491175992
702778646905
251391436412
251391436413
702778646875
251391436498
251391436499
251391436498
251391436498
2777491175992
702778646905
2777491175992
702778646905
251391436522
251391436523
702778646875
2777491175995
251391436535
251391436536
251391436535
251391436535
2777491175992
702778646905
2777491175992
702778646905
2777491175992
702778646905
2777491175992
702778646905
251391436545
251391436559
251391436546
251391436560
702778646875
251391436633
251391436634
702778646875
251391436651
251391436652
251391436651
251391436651
2777491175992
702778646905
251391436657
251391436658
251391436657
251391436657
2777491175992
702778646905
251391436694
251391436695
702778646875
2777491175992
702778646905
251391436695
251391436695
251391436695
2777491175992
702778646905
251391436743
251391436743
2777491175992
251391436743
702778646905
251391436863
702778646875
251391436696
251391436744
251391436761
251391436762
251391436761
251391436761
2777491175992
702778646905
2777491175992
702778646905
2777491175992
702778646905
2777491175993
702778646905
251391436874
251391436875
251391436874
251391436918
251391436919
251391436874
702778646875
251391436877
251391436884
251391436877
251391436878
251391436884
251391436877
251391436884
2777491175993
702778646905
251391436885
251391437011
702778646875
2777491175993
702778646905
2777491175996
251391437012
251391437026
251391437027
251391437026
251391437026
2777491175993
702778646905
2777491175993
702778646905
251391437080
251391437081
702778646875
251391437040
251391437041
251391437040
251391437040
2777491175993
702778646905
2777491175993
702778646905
251391437124
251391437152
702778646875
251391437117
251391437118
251391437117
251391437117
2777491175993
702778646905
251391437137
251391437138
702778646875
2777491175993
702778646905
251391437166
251391437166
251391437166
2777491175993
702778646905
2777491175993
702778646905
251391437250
251391437167
251391437167
251391437167
251391437168
251391437249
702778646875
2777491175993
702778646905
2777491175993
702778646905
251391437321
251391437357
251391437322
251391437358
251391437321
702778646875
251391437321
2777491175993
702778646905
251391437513
251391437514
702778646875
2777491175993
702778646905
251391437565
251391437565
251391437565
2777491175993
702778646905
2777491175994
702778646905
251391437595
251391437625
251391437596
251391437626
251391437595
702778646875
251391437595
2777491175994
702778646905
251391437566
251391437656
251391437657
2777491175994
702778646905
2777491175997
251391437741
251391437742
702778646875
2777491175994
702778646905
2777491175994
702778646905
2777491175994
702778646905
251391437783
251391437787
251391437784
251391437788
702778646875
251391437798
251391437799
251391437798
251391437798
2777491175994
702778646905
251391437823
251391437823
251391437823
2777491175994
702778646905
251391437856
702778646875
2777491175994
702778646905
251391437857
251391437867
251391437868
251391437867
251391437867
2777491175994
702778646905
251391437958
251391437959
702778646875
2777491175994
702778646905
251391438065
251391438066
251391438065
251391438065
2777491175994
702778646905
2777491175994
702778646905
2777491175994
702778646905
251391438071
251391438072
251391438071
251391438106
251391438071
251391438107
702778646875
251391438087
251391438088
251391438087
251391438087
2777491175994
702778646905
2777491175994
702778646905
2777491175995
702778646905
251391438250
251391438238
251391438251
702778646875
251391438210
251391438237
251391438210
2777491175998
251391438237
251391438210
251391438211
251391438237
2777491175995
702778646905
251391438400
251391438401
702778646875
2777491175995
702778646905
251391438426
251391438425
251391438425
251391438425
2777491175995
702778646905
2777491175995
702778646905
251391438468
251391438469
251391438468
251391438468
251391438509
251391438510
702778646875
2777491175995
702778646905
251391438522
251391438523
702778646875
2777491175995
702778646905
251391438693
251391438694
251391438693
251391438693
2777491175995
702778646905
2777491175995
702778646905
2777491175995
702778646905
251391438732
251391438733
251391438791
251391438732
251391438789
251391438792
702778646875
251391438732
251391438788
251391438788
251391438788
2777491175995
702778646905
251391438809
251391438810
702778646875
2777491175995
702778646905
251391438819
251391438820
251391438819
251391438819
2777491175995
702778646905
2777491175995
702778646905
251391438914
251391438915
702778646875
251391438910
251391438911
251391438910
251391438910
2777491175995
702778646905
2777491175995
702778646905
2777491175996
702778646905
2777491175996
702778646905
251391438966
251391438967
251391438966
251391439003
251391438966
251391439003
251391439106
251391439003
702778646875
251391439107
2777491175999
251391439030
251391439004
251391439030
251391439030
2777491175996
702778646905
2777491175996
702778646905
251391439216
251391439217
702778646875
251391439031
251391439168
251391439169
251391439168
251391439168
2777491175996
702778646905
2777491175996
702778646905
2777491175996
702778646905
2777491175996
702778646905
251391439297
251391439355
251391439298
251391439297
251391439355
251391439402
251391439297
251391439355
702778646875
251391439356
251391439365
251391439403
251391439364
251391439364
251391439364
2777491175996
702778646905
251391439532
251391439533
702778646875
2777491175996
702778646905
2777491175996
702778646905
251391439555
251391439556
702778646875
251391439582
251391439583
251391439582
251391439582
2777491175996
702778646905
251391439613
251391439612
251391439612
251391439612
2777491175996
702778646905
251391439628
251391439629
702778646875
2777491175996
702778646905
2777491175996
702778646905
2777491175996
702778646905
251391439659
251391439660
702778646876
251391439680
251391439681
702778646875
702778646877
251391439852
251391439853
251391439852
251391439852
2777491175997
702778646905
251391439855
251391439856
251391439855
251391439855
2777491175997
702778646905
2777491175997
702778646905
2777491175997
702778646905
251391439915
251391439895
251391439916
702778646875
251391439894
251391439897
251391439894
251391439898
251391439897
251391439894
251391439897
2777491175997
702778646905
2777491175997
702778646905
2777491175997
702778646905
251391439957
251391439998
251391439958
251391439999
251391439957
702778646875
251391439922
251391439923
251391439922
251391439922
251391439957
2777491175997
702778646905
2777491175997
702778646905
2777491175997
702778646905
2777491175997
702778646905
2777491175997
702778646905
2777491175997
702778646905
251391440058
251391440059
251391440058
251391440058
251391440197
251391440207
251391440197
251391440198
251391440208
251391440146
251391440153
251391440146
251391440156
251391440153
251391440146
251391440147
251391440156
251391440153
251391440157
251391440156
251391440197
251391440154
2777491175997
702778646905
251391440225
251391440226
702778646875
2777491175997
702778646905
251391440225
702778646875
2777491175997
702778646905
2777491175998
702778646905
2777491175998
702778646905
2777491175998
702778646905
2777491175998
702778646905
2777491175998
702778646905
2777491175998
702778646905
251391440231
251391440232
251391440323
702778646875
251391440345
251391440371
251391440324
251391440372
702778646875
251391440398
251391440417
702778646875
251391440418
251391440346
251391440433
251391440399
251391440433
251391440434
251391440433
2777491175998
702778646905
251391440517
251391440516
251391440516
251391440516
2777491175998
702778646905
2777491175998
702778646905
2777491175998
702778646905
251391440587
251391440590
251391440588
251391440591
251391440587
702778646875
251391440549
251391440550
251391440549
251391440549
251391440587
2777491175998
702778646905
2777491175998
702778646905
2777491175998
702778646905
251391440701
251391440778
251391440779
702778646875
251391440700
251391440700
251391440700
251391440764
251391440764
251391440764
2777491175998
702778646905
2777491175998
702778646905
2777491175998
702778646905
2777491175999
702778646905
2777491175999
702778646905
251391440795
251391440796
251391440809
251391440795
251391440809
251391440828
251391440795
251391440809
251391440911
251391440911
251391440907
251391440912
251391440810
251391440827
251391440827
251391440827
251391440906
251391440906
251391440906
2777491175999
702778646905
251391440911
251391441030
251391441031
702778646875
2777491175999
702778646905
251391441061
251391441062
702778646875
2777491175999
702778646905
251391441137
251391441138
251391441137
251391441137
2777491175999
702778646905
2777491175999
702778646905
251391441192
251391441178
251391441193
702778646875
251391441177
251391441177
251391441177
2777491175999
702778646905
251391441197
251391441198
702778646875
2777491175999
702778646905
251391441204
251391441205
251391441204
251391441204
2777491175999
702778646905
251391441306
702778646875
2777491175999
702778646905
251391441312
251391441307
251391441311
251391441311
251391441311
2777491175999
702778646905
251391441434
251391441435
702778646875
2777491175999
702778646905
251391441466
251391441465
251391441465
251391441465
2777491175999
702778646905
2777491175999
702778646905
2777491175999
702778646905
702778646905
702778646905
251391441483
251391441484
251391441483
251391441538
251391441483
251391441538
251391441526
251391441527
251391441526
2777491176000
251391441526
2777491176001
251391441538
2777491176002
2777491176003
251391441558
251391441559
251391441558
702778646875
251391441558
2777491176000
702778646905
2777491176000
702778646905
251391441700
251391441781
251391441782
702778646875
251391441539
251391441699
251391441699
251391441699
2777491176000
702778646905
2777491176000
702778646905
251391442136
251391442137
702778646875
251391442012
251391442013
251391442012
251391442012
2777491176000
702778646905
2777491176000
702778646905
2777491176000
702778646905
2777491176000
702778646905
251391442231
251391442202
251391442231
251391442317
251391442318
702778646875
251391442201
251391442220
251391442201
251391442221
251391442220
251391442201
251391442232
251391442220
251391442231
2777491176000
702778646905
2777491176000
702778646905
2777491176000
702778646905
2777491176000
702778646905
2777491176000
702778646905
2777491176000
702778646905
2777491176001
702778646905
251391442374
251391442479
251391442480
251391442479
251391442551
702778646875
251391442322
251391442323
251391442322
251391442373
251391442322
251391442384
251391442373
251391442385
251391442384
251391442373
251391442384
251391442479
251391442549
251391442552
251391442512
251391442548
251391442512
251391442548
251391442512
251391442548
251391442513
2777491176001
702778646905
2777491176001
702778646905
2777491176001
702778646905
2777491176001
702778646905
251391442589
251391442590
251391442654
251391442589
251391442655
251391442654
251391442753
251391442589
702778646875
251391442754
2777491176004
251391442640
251391442639
251391442639
251391442639
251391442654
2777491176001
702778646905
251391442825
251391442826
702778646875
2777491176001
702778646905
2777491176001
702778646905
251391442876
251391442877
702778646875
251391442880
251391442881
251391442880
251391442880
2777491176001
702778646905
251391442941
251391442941
251391442941
2777491176001
702778646905
251391442977
251391442942
251391442976
251391442976
2777491176001
702778646905
251391442976
251391442996
251391442997
702778646875
2777491176001
702778646905
251391443051
251391443052
702778646875
2777491176001
702778646905
251391443129
251391443130
251391443129
251391443129
2777491176001
702778646905
2777491176001
702778646905
2777491176001
702778646905
2777491176002
702778646905
2777491176002
702778646905
2777491176002
702778646905
251391443193
2777491176002
702778646905
251391443171
251391443193
251391443153
251391443170
251391443153
2777491176005
251391443170
251391443153
251391443170
251391443193
251391443367
251391443289
702778646875
251391443154
251391443290
251391443289
251391443368
251391443194
251391443282
251391443282
251391443282
251391443289
251391443314
251391443314
251391443283
251391443314
2777491176002
702778646905
251391443315
251391443388
251391443389
702778646875
2777491176002
702778646905
251391443466
251391443467
251391443466
251391443466
2777491176002
702778646905
2777491176002
702778646905
2777491176002
702778646905
2777491176002
702778646905
2777491176002
702778646905
2777491176002
702778646905
251391443646
251391443640
251391443647
251391443646
251391443669
251391443678
251391443669
251391443678
251391443700
702778646875
251391443701
251391443602
251391443639
251391443602
251391443603
251391443639
251391443602
251391443639
Finished CPU 0 instructions: 1000002 cycles: 3122003 cumulative IPC: 0.320308 (Simulation time: 0 hr 0 min 13 sec) 

ChampSim completed all CPUs

Region of Interest Statistics

CPU 0 cumulative IPC: 0.320308 instructions: 1000002 cycles: 3122003
L1D TOTAL     ACCESS:     167874  HIT:      98433  MISS:      69441
L1D LOAD      ACCESS:      90219  HIT:      66014  MISS:      24205
L1D RFO       ACCESS:      40659  HIT:      16714  MISS:      23945
L1D PREFETCH  ACCESS:      36996  HIT:      15705  MISS:      21291
L1D WRITEBACK ACCESS:          0  HIT:          0  MISS:          0
L1D PREFETCH  REQUESTED:      40758  ISSUED:      40028  USEFUL:       1597  USELESS:      19648
L1D AVERAGE MISS LATENCY: 223.535 cycles
L1I TOTAL     ACCESS:     156450  HIT:     156446  MISS:          4
L1I LOAD      ACCESS:     156450  HIT:     156446  MISS:          4
L1I RFO       ACCESS:          0  HIT:          0  MISS:          0
L1I PREFETCH  ACCESS:          0  HIT:          0  MISS:          0
L1I WRITEBACK ACCESS:          0  HIT:          0  MISS:          0
L1I PREFETCH  REQUESTED:          0  ISSUED:          0  USEFUL:          0  USELESS:          0
L1I AVERAGE MISS LATENCY: 398.25 cycles
L2C TOTAL     ACCESS:     109818  HIT:      43057  MISS:      66761
L2C LOAD      ACCESS:      24194  HIT:       1495  MISS:      22699
L2C RFO       ACCESS:      23945  HIT:          0  MISS:      23945
L2C PREFETCH  ACCESS:      21306  HIT:       1208  MISS:      20098
L2C WRITEBACK ACCESS:      40373  HIT:      40354  MISS:         19
L2C PREFETCH  REQUESTED:          0  ISSUED:          0  USEFUL:        205  USELESS:      19377
L2C AVERAGE MISS LATENCY: 216.033 cycles
LLC TOTAL     ACCESS:     107722  HIT:      66570  MISS:      41152
LLC LOAD      ACCESS:      22699  HIT:      14189  MISS:       8510
LLC RFO       ACCESS:      23945  HIT:          0  MISS:      23945
LLC PREFETCH  ACCESS:      20098  HIT:      11401  MISS:       8697
LLC WRITEBACK ACCESS:      40980  HIT:      40980  MISS:          0
LLC PREFETCH  REQUESTED:          0  ISSUED:          0  USEFUL:        689  USELESS:         84
LLC AVERAGE MISS LATENCY: 300.397 cycles
Major fault: 0 Minor fault: 1094


DRAM Statistics
 CHANNEL 0
 RQ ROW_BUFFER_HIT:       2184  ROW_BUFFER_MISS:      38959
 DBUS_CONGESTED:      58319
 WQ ROW_BUFFER_HIT:       7933  ROW_BUFFER_MISS:      33121  FULL:          0

 AVG_CONGESTED_CYCLE: 6

CPU 0 Branch Prediction Accuracy: 94.6712% MPKI: 8.91497 Average ROB Occupancy at Mispredict: 24.1888

Branch types
NOT_BRANCH: 832718 83.2716%
BRANCH_DIRECT_JUMP: 0 0%
BRANCH_INDIRECT: 0 0%
BRANCH_CONDITIONAL: 167298 16.7298%
BRANCH_DIRECT_CALL: 0 0%
BRANCH_INDIRECT_CALL: 0 0%
BRANCH_RETURN: 0 0%
BRANCH_OTHER: 0 0%

